                                  MODFLOW-2005     
      U.S. GEOLOGICAL SURVEY MODULAR FINITE-DIFFERENCE GROUND-WATER FLOW MODEL
                            VERSION 1.11.00 8/8/2013

 LIST FILE: tutorial2.list
                         UNIT    2

 OPENING tutorial2.dis
 FILE TYPE:DIS   UNIT   11   STATUS:OLD    
 FORMAT:FORMATTED              ACCESS:SEQUENTIAL          

 OPENING tutorial2.bas
 FILE TYPE:BAS6   UNIT   13   STATUS:OLD    
 FORMAT:FORMATTED              ACCESS:SEQUENTIAL          

 OPENING tutorial2.lpf
 FILE TYPE:LPF   UNIT   15   STATUS:OLD    
 FORMAT:FORMATTED              ACCESS:SEQUENTIAL          

 OPENING tutorial2.pcg
 FILE TYPE:PCG   UNIT   27   STATUS:OLD    
 FORMAT:FORMATTED              ACCESS:SEQUENTIAL          

 OPENING tutorial2.ghb
 FILE TYPE:GHB   UNIT   23   STATUS:OLD    
 FORMAT:FORMATTED              ACCESS:SEQUENTIAL          

 OPENING tutorial2.wel
 FILE TYPE:WEL   UNIT   20   STATUS:OLD    
 FORMAT:FORMATTED              ACCESS:SEQUENTIAL          

 OPENING tutorial2.oc
 FILE TYPE:OC   UNIT   14   STATUS:OLD    
 FORMAT:FORMATTED              ACCESS:SEQUENTIAL          

 OPENING tutorial2.hds
 FILE TYPE:DATA(BINARY)   UNIT   51   STATUS:REPLACE
 FORMAT:UNFORMATTED            ACCESS:SEQUENTIAL          

 OPENING tutorial2.ddn
 FILE TYPE:DATA(BINARY)   UNIT   52   STATUS:REPLACE
 FORMAT:UNFORMATTED            ACCESS:SEQUENTIAL          

 OPENING tutorial2.cbc
 FILE TYPE:DATA(BINARY)   UNIT   53   STATUS:REPLACE
 FORMAT:UNFORMATTED            ACCESS:SEQUENTIAL          

 BAS -- BASIC PACKAGE, VERSION 7, 5/2/2005 INPUT READ FROM UNIT   13

 MODFLOW was compiled using mixed precision
 Precision of REAL variables:           6
 Precision of DOUBLE PRECISION variables:          15

 DISCRETIZATION INPUT DATA READ FROM UNIT   11
 # Discretization file for MODFLOW, generated by Flopy.
    1 LAYERS        10 ROWS        10 COLUMNS
    3 STRESS PERIOD(S) IN SIMULATION
 MODEL TIME UNIT IS DAYS
 MODEL LENGTH UNIT IS METERS
  Confining bed flag for each layer:
   0

                     DELR =   100.000    

                     DELC =   100.000    

 TOP ELEVATION OF LAYER 1 =   0.00000    

   MODEL LAYER BOTTOM EL. =  -50.0000     FOR LAYER   1


 STRESS PERIOD     LENGTH       TIME STEPS     MULTIPLIER FOR DELT    SS FLAG
 ----------------------------------------------------------------------------
        1         1.000000          1                    1.000         SS
        2         100.0000        100                    1.000         TR
        3         100.0000        100                    1.000         TR

 COMBINED STEADY-STATE AND TRANSIENT SIMULATION




 # Basic package file for MODFLOW, generated by Flopy.                           
 THE FREE FORMAT OPTION HAS BEEN SELECTED



                     BOUNDARY ARRAY FOR LAYER   1
 READING ON UNIT   13 WITH FORMAT: (10I10)             

 AQUIFER HEAD WILL BE SET TO  -999.99     AT ALL NO-FLOW NODES (IBOUND=0).



                       INITIAL HEAD FOR LAYER   1
 READING ON UNIT   13 WITH FORMAT: (10G15.6)           
 # Output control package file for MODFLOW, generated by Flopy.

 OUTPUT CONTROL IS SPECIFIED ONLY AT TIME STEPS FOR WHICH OUTPUT IS DESIRED
 COMPACT CELL-BY-CELL BUDGET FILES WILL BE WRITTEN
 HEAD PRINT FORMAT CODE IS   0    DRAWDOWN PRINT FORMAT CODE IS   0
 HEADS WILL BE SAVED ON UNIT   51    DRAWDOWNS WILL BE SAVED ON UNIT   52

 LPF -- LAYER-PROPERTY FLOW PACKAGE, VERSION 7, 5/2/2005
         INPUT READ FROM UNIT   15
 # LPF for MODFLOW, generated by Flopy.
 CELL-BY-CELL FLOWS WILL BE SAVED ON UNIT   53
 HEAD AT CELLS THAT CONVERT TO DRY= -1.00000E+30
 No named parameters

   LAYER FLAGS:
 LAYER       LAYTYP        LAYAVG         CHANI        LAYVKA        LAYWET
 ---------------------------------------------------------------------------
    1             1             0     1.000E+00             0             0

   INTERPRETATION OF LAYER FLAGS:
                        INTERBLOCK     HORIZONTAL    DATA IN
         LAYER TYPE   TRANSMISSIVITY   ANISOTROPY   ARRAY VKA   WETTABILITY
 LAYER      (LAYTYP)      (LAYAVG)       (CHANI)      (LAYVKA)      (LAYWET)
 ---------------------------------------------------------------------------
    1   CONVERTIBLE      HARMONIC     1.000E+00    VERTICAL K  NON-WETTABLE

 WETTING CAPABILITY IS NOT ACTIVE IN ANY LAYER

    HYD. COND. ALONG ROWS =   1.00000     FOR LAYER   1

      VERTICAL HYD. COND. =   1.00000     FOR LAYER   1

         SPECIFIC STORAGE =  1.000000E-04 FOR LAYER   1

           SPECIFIC YIELD =  0.100000     FOR LAYER   1

 WEL -- WELL PACKAGE, VERSION 7, 5/2/2005 INPUT READ FROM UNIT   20
 # Well file for MODFLOW, generated by Flopy.
 No named parameters
 MAXIMUM OF      1 ACTIVE WELLS AT ONE TIME


     0 Well parameters

 GHB -- GENERAL-HEAD BOUNDARY PACKAGE, VERSION 7, 5/2/2005
         INPUT READ FROM UNIT   23
 # GHB for MODFLOW, generated by Flopy.
 No named parameters
 MAXIMUM OF     20 ACTIVE GHB CELLS AT ONE TIME


     0 GHB parameters

 PCG -- CONJUGATE-GRADIENT SOLUTION PACKAGE, VERSION 7, 5/2/2005
 # PCG for MODFLOW, generated by Flopy.
 MAXIMUM OF     50 CALLS OF SOLUTION ROUTINE
 MAXIMUM OF     30 INTERNAL ITERATIONS PER CALL TO SOLUTION ROUTINE
 MATRIX PRECONDITIONING TYPE :    1



                                    SOLUTION BY THE CONJUGATE-GRADIENT METHOD
                                   -------------------------------------------
                    MAXIMUM NUMBER OF CALLS TO PCG ROUTINE =       50
                        MAXIMUM ITERATIONS PER CALL TO PCG =       30
                               MATRIX PRECONDITIONING TYPE =        1
        RELAXATION FACTOR (ONLY USED WITH PRECOND. TYPE 1) =    0.10000E+01
 PARAMETER OF POLYNOMIAL PRECOND. = 2 (2) OR IS CALCULATED :        0
                         HEAD CHANGE CRITERION FOR CLOSURE =    0.10000E-04
                     RESIDUAL CHANGE CRITERION FOR CLOSURE =    0.10000E-04
            PCG HEAD AND RESIDUAL CHANGE PRINTOUT INTERVAL =      999
     PRINTING FROM SOLVER IS LIMITED(1) OR SUPPRESSED (>1) =        3
                            STEADY-STATE DAMPING PARAMETER =    0.10000E+01
                               TRANSIENT DAMPING PARAMETER =    0.10000E+01
1
                            STRESS PERIOD NO.    1, LENGTH =   1.000000    
                            -----------------------------------------------

                              NUMBER OF TIME STEPS =     1

                               MULTIPLIER FOR DELT =     1.000

                            INITIAL TIME STEP SIZE =   1.000000    

 WELL NO.  LAYER   ROW   COL   STRESS RATE         
 --------------------------------------------------
      1      1      5      5       0.000    

      1 WELL 

 BOUND. NO. LAYER   ROW   COL     STAGE      CONDUCTANCE         
 ----------------------------------------------------------------
      1      1      1      1       10.00           6000.    
      2      1      1     10       10.00           6000.    
      3      1      2      1       10.00           6000.    
      4      1      2     10       10.00           6000.    
      5      1      3      1       10.00           6000.    
      6      1      3     10       10.00           6000.    
      7      1      4      1       10.00           6000.    
      8      1      4     10       10.00           6000.    
      9      1      5      1       10.00           6000.    
     10      1      5     10       10.00           6000.    
     11      1      6      1       10.00           6000.    
     12      1      6     10       10.00           6000.    
     13      1      7      1       10.00           6000.    
     14      1      7     10       10.00           6000.    
     15      1      8      1       10.00           6000.    
     16      1      8     10       10.00           6000.    
     17      1      9      1       10.00           6000.    
     18      1      9     10       10.00           6000.    
     19      1     10      1       10.00           6000.    
     20      1     10     10       10.00           6000.    

     20 GHB CELLS

 SOLVING FOR HEAD 

 OUTPUT CONTROL FOR STRESS PERIOD    1   TIME STEP    1
    SAVE HEAD FOR ALL LAYERS
    SAVE DRAWDOWN FOR ALL LAYERS
    SAVE BUDGET
    PRINT HEAD FOR ALL LAYERS
    PRINT BUDGET
 UBDSV2 SAVING "   CONSTANT HEAD" ON UNIT  53 AT TIME STEP  1, STRESS PERIOD   1
 UBDSV1 SAVING "FLOW RIGHT FACE " ON UNIT  53 AT TIME STEP  1, STRESS PERIOD   1
 UBDSV1 SAVING "FLOW FRONT FACE " ON UNIT  53 AT TIME STEP  1, STRESS PERIOD   1
1
              HEAD IN LAYER   1 AT END OF TIME STEP   1 IN STRESS PERIOD    1
  ---------------------------------------------------------------------------

            1           2           3           4           5           6           7           8           9          10
 ........................................................................................................................
   1    10.00       10.00       10.00       10.00       10.00       10.00       10.00       10.00       10.00       10.00    
   2    10.00       10.00       10.00       10.00       10.00       10.00       10.00       10.00       10.00       10.00    
   3    10.00       10.00       10.00       10.00       10.00       10.00       10.00       10.00       10.00       10.00    
   4    10.00       10.00       10.00       10.00       10.00       10.00       10.00       10.00       10.00       10.00    
   5    10.00       10.00       10.00       10.00       10.00       10.00       10.00       10.00       10.00       10.00    
   6    10.00       10.00       10.00       10.00       10.00       10.00       10.00       10.00       10.00       10.00    
   7    10.00       10.00       10.00       10.00       10.00       10.00       10.00       10.00       10.00       10.00    
   8    10.00       10.00       10.00       10.00       10.00       10.00       10.00       10.00       10.00       10.00    
   9    10.00       10.00       10.00       10.00       10.00       10.00       10.00       10.00       10.00       10.00    
  10    10.00       10.00       10.00       10.00       10.00       10.00       10.00       10.00       10.00       10.00    

 HEAD WILL BE SAVED ON UNIT   51 AT END OF TIME STEP    1, STRESS PERIOD    1

 DRAWDOWN WILL BE SAVED ON UNIT   52 AT END OF TIME STEP    1, STRESS PERIOD    1
1
  VOLUMETRIC BUDGET FOR ENTIRE MODEL AT END OF TIME STEP    1, STRESS PERIOD   1
  ------------------------------------------------------------------------------

     CUMULATIVE VOLUMES      L**3       RATES FOR THIS TIME STEP      L**3/T
     ------------------                 ------------------------

           IN:                                      IN:
           ---                                      ---
             STORAGE =           0.0000               STORAGE =           0.0000
       CONSTANT HEAD =           0.0000         CONSTANT HEAD =           0.0000
               WELLS =           0.0000                 WELLS =           0.0000
     HEAD DEP BOUNDS =           0.0000       HEAD DEP BOUNDS =           0.0000

            TOTAL IN =           0.0000              TOTAL IN =           0.0000

          OUT:                                     OUT:
          ----                                     ----
             STORAGE =           0.0000               STORAGE =           0.0000
       CONSTANT HEAD =           0.0000         CONSTANT HEAD =           0.0000
               WELLS =           0.0000                 WELLS =           0.0000
     HEAD DEP BOUNDS =           0.0000       HEAD DEP BOUNDS =           0.0000

           TOTAL OUT =           0.0000             TOTAL OUT =           0.0000

            IN - OUT =           0.0000              IN - OUT =           0.0000

 PERCENT DISCREPANCY =           0.00     PERCENT DISCREPANCY =           0.00






         TIME SUMMARY AT END OF TIME STEP    1 IN STRESS PERIOD    1
                    SECONDS     MINUTES      HOURS       DAYS        YEARS
                    -----------------------------------------------------------
   TIME STEP LENGTH  86400.      1440.0      24.000      1.0000     2.73785E-03
 STRESS PERIOD TIME  86400.      1440.0      24.000      1.0000     2.73785E-03
         TOTAL TIME  86400.      1440.0      24.000      1.0000     2.73785E-03
1
1
                            STRESS PERIOD NO.    2, LENGTH =   100.0000    
                            -----------------------------------------------

                              NUMBER OF TIME STEPS =   100

                               MULTIPLIER FOR DELT =     1.000

                            INITIAL TIME STEP SIZE =   1.000000    

 WELL NO.  LAYER   ROW   COL   STRESS RATE         
 --------------------------------------------------
      1      1      5      5       0.000    

      1 WELL 

 BOUND. NO. LAYER   ROW   COL     STAGE      CONDUCTANCE         
 ----------------------------------------------------------------
      1      1      1      1       10.00           6000.    
      2      1      1     10       0.000           5000.    
      3      1      2      1       10.00           6000.    
      4      1      2     10       0.000           5000.    
      5      1      3      1       10.00           6000.    
      6      1      3     10       0.000           5000.    
      7      1      4      1       10.00           6000.    
      8      1      4     10       0.000           5000.    
      9      1      5      1       10.00           6000.    
     10      1      5     10       0.000           5000.    
     11      1      6      1       10.00           6000.    
     12      1      6     10       0.000           5000.    
     13      1      7      1       10.00           6000.    
     14      1      7     10       0.000           5000.    
     15      1      8      1       10.00           6000.    
     16      1      8     10       0.000           5000.    
     17      1      9      1       10.00           6000.    
     18      1      9     10       0.000           5000.    
     19      1     10      1       10.00           6000.    
     20      1     10     10       0.000           5000.    

     20 GHB CELLS

 SOLVING FOR HEAD 

 OUTPUT CONTROL FOR STRESS PERIOD    2   TIME STEP    1
    SAVE HEAD FOR ALL LAYERS
    SAVE DRAWDOWN FOR ALL LAYERS
    SAVE BUDGET
    PRINT HEAD FOR ALL LAYERS
    PRINT BUDGET
 UBDSV1 SAVING "         STORAGE" ON UNIT  53 AT TIME STEP  1, STRESS PERIOD   2
 UBDSV2 SAVING "   CONSTANT HEAD" ON UNIT  53 AT TIME STEP  1, STRESS PERIOD   2
 UBDSV1 SAVING "FLOW RIGHT FACE " ON UNIT  53 AT TIME STEP  1, STRESS PERIOD   2
 UBDSV1 SAVING "FLOW FRONT FACE " ON UNIT  53 AT TIME STEP  1, STRESS PERIOD   2
1
              HEAD IN LAYER   1 AT END OF TIME STEP   1 IN STRESS PERIOD    2
  ---------------------------------------------------------------------------

            1           2           3           4           5           6           7           8           9          10
 ........................................................................................................................
   1    10.00       9.996       9.989       9.970       9.920       9.791       9.452       8.564       6.241      0.1592    
   2    10.00       9.996       9.989       9.970       9.920       9.791       9.452       8.564       6.241      0.1592    
   3    10.00       9.996       9.989       9.970       9.920       9.791       9.452       8.564       6.241      0.1592    
   4    10.00       9.996       9.989       9.970       9.920       9.791       9.452       8.564       6.241      0.1592    
   5    10.00       9.996       9.989       9.970       9.920       9.791       9.452       8.564       6.241      0.1592    
   6    10.00       9.996       9.989       9.970       9.920       9.791       9.452       8.564       6.241      0.1592    
   7    10.00       9.996       9.989       9.970       9.920       9.791       9.452       8.564       6.241      0.1592    
   8    10.00       9.996       9.989       9.970       9.920       9.791       9.452       8.564       6.241      0.1592    
   9    10.00       9.996       9.989       9.970       9.920       9.791       9.452       8.564       6.241      0.1592    
  10    10.00       9.996       9.989       9.970       9.920       9.791       9.452       8.564       6.241      0.1592    

 HEAD WILL BE SAVED ON UNIT   51 AT END OF TIME STEP    1, STRESS PERIOD    2

 DRAWDOWN WILL BE SAVED ON UNIT   52 AT END OF TIME STEP    1, STRESS PERIOD    2
1
  VOLUMETRIC BUDGET FOR ENTIRE MODEL AT END OF TIME STEP    1, STRESS PERIOD   2
  ------------------------------------------------------------------------------

     CUMULATIVE VOLUMES      L**3       RATES FOR THIS TIME STEP      L**3/T
     ------------------                 ------------------------

           IN:                                      IN:
           ---                                      ---
             STORAGE =        7959.4741               STORAGE =        7959.4741
       CONSTANT HEAD =           0.0000         CONSTANT HEAD =           0.0000
               WELLS =           0.0000                 WELLS =           0.0000
     HEAD DEP BOUNDS =           1.8788       HEAD DEP BOUNDS =           1.8788

            TOTAL IN =        7961.3530              TOTAL IN =        7961.3530

          OUT:                                     OUT:
          ----                                     ----
             STORAGE =           0.0000               STORAGE =           0.0000
       CONSTANT HEAD =           0.0000         CONSTANT HEAD =           0.0000
               WELLS =           0.0000                 WELLS =           0.0000
     HEAD DEP BOUNDS =        7961.3530       HEAD DEP BOUNDS =        7961.3530

           TOTAL OUT =        7961.3530             TOTAL OUT =        7961.3530

            IN - OUT =           0.0000              IN - OUT =           0.0000

 PERCENT DISCREPANCY =           0.00     PERCENT DISCREPANCY =           0.00






         TIME SUMMARY AT END OF TIME STEP    1 IN STRESS PERIOD    2
                    SECONDS     MINUTES      HOURS       DAYS        YEARS
                    -----------------------------------------------------------
   TIME STEP LENGTH  86400.      1440.0      24.000      1.0000     2.73785E-03
 STRESS PERIOD TIME  86400.      1440.0      24.000      1.0000     2.73785E-03
         TOTAL TIME 1.72800E+05  2880.0      48.000      2.0000     5.47570E-03
1

 SOLVING FOR HEAD 

 OUTPUT CONTROL FOR STRESS PERIOD    2   TIME STEP    2
    SAVE HEAD FOR ALL LAYERS
    SAVE DRAWDOWN FOR ALL LAYERS
    SAVE BUDGET
    PRINT HEAD FOR ALL LAYERS
    PRINT BUDGET
 UBDSV1 SAVING "         STORAGE" ON UNIT  53 AT TIME STEP  2, STRESS PERIOD   2
 UBDSV2 SAVING "   CONSTANT HEAD" ON UNIT  53 AT TIME STEP  2, STRESS PERIOD   2
 UBDSV1 SAVING "FLOW RIGHT FACE " ON UNIT  53 AT TIME STEP  2, STRESS PERIOD   2
 UBDSV1 SAVING "FLOW FRONT FACE " ON UNIT  53 AT TIME STEP  2, STRESS PERIOD   2
1
              HEAD IN LAYER   1 AT END OF TIME STEP   2 IN STRESS PERIOD    2
  ---------------------------------------------------------------------------

            1           2           3           4           5           6           7           8           9          10
 ........................................................................................................................
   1    10.00       9.983       9.953       9.888       9.740       9.413       8.710       7.264       4.517      4.5844E-02
   2    10.00       9.983       9.953       9.888       9.740       9.413       8.710       7.264       4.517      4.5844E-02
   3    10.00       9.983       9.953       9.888       9.740       9.413       8.710       7.264       4.517      4.5844E-02
   4    10.00       9.983       9.953       9.888       9.740       9.413       8.710       7.264       4.517      4.5844E-02
   5    10.00       9.983       9.953       9.888       9.740       9.413       8.710       7.264       4.517      4.5844E-02
   6    10.00       9.983       9.953       9.888       9.740       9.413       8.710       7.264       4.517      4.5844E-02
   7    10.00       9.983       9.953       9.888       9.740       9.413       8.710       7.264       4.517      4.5844E-02
   8    10.00       9.983       9.953       9.888       9.740       9.413       8.710       7.264       4.517      4.5844E-02
   9    10.00       9.983       9.953       9.888       9.740       9.413       8.710       7.264       4.517      4.5844E-02
  10    10.00       9.983       9.953       9.888       9.740       9.413       8.710       7.264       4.517      4.5844E-02

 HEAD WILL BE SAVED ON UNIT   51 AT END OF TIME STEP    2, STRESS PERIOD    2

 DRAWDOWN WILL BE SAVED ON UNIT   52 AT END OF TIME STEP    2, STRESS PERIOD    2
1
  VOLUMETRIC BUDGET FOR ENTIRE MODEL AT END OF TIME STEP    2, STRESS PERIOD   2
  ------------------------------------------------------------------------------

     CUMULATIVE VOLUMES      L**3       RATES FOR THIS TIME STEP      L**3/T
     ------------------                 ------------------------

           IN:                                      IN:
           ---                                      ---
             STORAGE =       10243.3164               STORAGE =        2283.8418
       CONSTANT HEAD =           0.0000         CONSTANT HEAD =           0.0000
               WELLS =           0.0000                 WELLS =           0.0000
     HEAD DEP BOUNDS =          10.2169       HEAD DEP BOUNDS =           8.3380

            TOTAL IN =       10253.5332              TOTAL IN =        2292.1799

          OUT:                                     OUT:
          ----                                     ----
             STORAGE =           0.0000               STORAGE =           0.0000
       CONSTANT HEAD =           0.0000         CONSTANT HEAD =           0.0000
               WELLS =           0.0000                 WELLS =           0.0000
     HEAD DEP BOUNDS =       10253.5488       HEAD DEP BOUNDS =        2292.1953

           TOTAL OUT =       10253.5488             TOTAL OUT =        2292.1953

            IN - OUT =      -1.5625E-02              IN - OUT =      -1.5381E-02

 PERCENT DISCREPANCY =          -0.00     PERCENT DISCREPANCY =          -0.00






         TIME SUMMARY AT END OF TIME STEP    2 IN STRESS PERIOD    2
                    SECONDS     MINUTES      HOURS       DAYS        YEARS
                    -----------------------------------------------------------
   TIME STEP LENGTH  86400.      1440.0      24.000      1.0000     2.73785E-03
 STRESS PERIOD TIME 1.72800E+05  2880.0      48.000      2.0000     5.47570E-03
         TOTAL TIME 2.59200E+05  4320.0      72.000      3.0000     8.21355E-03
1

 SOLVING FOR HEAD 

 OUTPUT CONTROL FOR STRESS PERIOD    2   TIME STEP    3
    SAVE HEAD FOR ALL LAYERS
    SAVE DRAWDOWN FOR ALL LAYERS
    SAVE BUDGET
    PRINT HEAD FOR ALL LAYERS
    PRINT BUDGET
 UBDSV1 SAVING "         STORAGE" ON UNIT  53 AT TIME STEP  3, STRESS PERIOD   2
 UBDSV2 SAVING "   CONSTANT HEAD" ON UNIT  53 AT TIME STEP  3, STRESS PERIOD   2
 UBDSV1 SAVING "FLOW RIGHT FACE " ON UNIT  53 AT TIME STEP  3, STRESS PERIOD   2
 UBDSV1 SAVING "FLOW FRONT FACE " ON UNIT  53 AT TIME STEP  3, STRESS PERIOD   2
1
              HEAD IN LAYER   1 AT END OF TIME STEP   3 IN STRESS PERIOD    2
  ---------------------------------------------------------------------------

            1           2           3           4           5           6           7           8           9          10
 ........................................................................................................................
   1    10.00       9.957       9.888       9.754       9.485       8.962       7.986       6.288       3.614      3.5876E-02
   2    10.00       9.957       9.888       9.754       9.485       8.962       7.986       6.288       3.614      3.5876E-02
   3    10.00       9.957       9.888       9.754       9.485       8.962       7.986       6.288       3.614      3.5876E-02
   4    10.00       9.957       9.888       9.754       9.485       8.962       7.986       6.288       3.614      3.5876E-02
   5    10.00       9.957       9.888       9.754       9.485       8.962       7.986       6.288       3.614      3.5876E-02
   6    10.00       9.957       9.888       9.754       9.485       8.962       7.986       6.288       3.614      3.5876E-02
   7    10.00       9.957       9.888       9.754       9.485       8.962       7.986       6.288       3.614      3.5876E-02
   8    10.00       9.957       9.888       9.754       9.485       8.962       7.986       6.288       3.614      3.5876E-02
   9    10.00       9.957       9.888       9.754       9.485       8.962       7.986       6.288       3.614      3.5876E-02
  10    10.00       9.957       9.888       9.754       9.485       8.962       7.986       6.288       3.614      3.5876E-02

 HEAD WILL BE SAVED ON UNIT   51 AT END OF TIME STEP    3, STRESS PERIOD    2

 DRAWDOWN WILL BE SAVED ON UNIT   52 AT END OF TIME STEP    3, STRESS PERIOD    2
1
  VOLUMETRIC BUDGET FOR ENTIRE MODEL AT END OF TIME STEP    3, STRESS PERIOD   2
  ------------------------------------------------------------------------------

     CUMULATIVE VOLUMES      L**3       RATES FOR THIS TIME STEP      L**3/T
     ------------------                 ------------------------

           IN:                                      IN:
           ---                                      ---
             STORAGE =       12015.8242               STORAGE =        1772.5074
       CONSTANT HEAD =           0.0000         CONSTANT HEAD =           0.0000
               WELLS =           0.0000                 WELLS =           0.0000
     HEAD DEP BOUNDS =          31.5182       HEAD DEP BOUNDS =          21.3013

            TOTAL IN =       12047.3428              TOTAL IN =        1793.8087

          OUT:                                     OUT:
          ----                                     ----
             STORAGE =           0.0000               STORAGE =           0.0000
       CONSTANT HEAD =           0.0000         CONSTANT HEAD =           0.0000
               WELLS =           0.0000                 WELLS =           0.0000
     HEAD DEP BOUNDS =       12047.3496       HEAD DEP BOUNDS =        1793.8009

           TOTAL OUT =       12047.3496             TOTAL OUT =        1793.8009

            IN - OUT =      -6.8359E-03              IN - OUT =       7.8125E-03

 PERCENT DISCREPANCY =          -0.00     PERCENT DISCREPANCY =           0.00






         TIME SUMMARY AT END OF TIME STEP    3 IN STRESS PERIOD    2
                    SECONDS     MINUTES      HOURS       DAYS        YEARS
                    -----------------------------------------------------------
   TIME STEP LENGTH  86400.      1440.0      24.000      1.0000     2.73785E-03
 STRESS PERIOD TIME 2.59200E+05  4320.0      72.000      3.0000     8.21355E-03
         TOTAL TIME 3.45600E+05  5760.0      96.000      4.0000     1.09514E-02
1

 SOLVING FOR HEAD 

 OUTPUT CONTROL FOR STRESS PERIOD    2   TIME STEP    4
    SAVE HEAD FOR ALL LAYERS
    SAVE DRAWDOWN FOR ALL LAYERS
    SAVE BUDGET
    PRINT HEAD FOR ALL LAYERS
    PRINT BUDGET
 UBDSV1 SAVING "         STORAGE" ON UNIT  53 AT TIME STEP  4, STRESS PERIOD   2
 UBDSV2 SAVING "   CONSTANT HEAD" ON UNIT  53 AT TIME STEP  4, STRESS PERIOD   2
 UBDSV1 SAVING "FLOW RIGHT FACE " ON UNIT  53 AT TIME STEP  4, STRESS PERIOD   2
 UBDSV1 SAVING "FLOW FRONT FACE " ON UNIT  53 AT TIME STEP  4, STRESS PERIOD   2
1
              HEAD IN LAYER   1 AT END OF TIME STEP   4 IN STRESS PERIOD    2
  ---------------------------------------------------------------------------

            1           2           3           4           5           6           7           8           9          10
 ........................................................................................................................
   1    9.999       9.917       9.795       9.579       9.188       8.501       7.353       5.571       3.072      3.0465E-02
   2    9.999       9.917       9.795       9.579       9.188       8.501       7.353       5.571       3.072      3.0465E-02
   3    9.999       9.917       9.795       9.579       9.188       8.501       7.353       5.571       3.072      3.0465E-02
   4    9.999       9.917       9.795       9.579       9.188       8.501       7.353       5.571       3.072      3.0465E-02
   5    9.999       9.917       9.795       9.579       9.188       8.501       7.353       5.571       3.072      3.0465E-02
   6    9.999       9.917       9.795       9.579       9.188       8.501       7.353       5.571       3.072      3.0465E-02
   7    9.999       9.917       9.795       9.579       9.188       8.501       7.353       5.571       3.072      3.0465E-02
   8    9.999       9.917       9.795       9.579       9.188       8.501       7.353       5.571       3.072      3.0465E-02
   9    9.999       9.917       9.795       9.579       9.188       8.501       7.353       5.571       3.072      3.0465E-02
  10    9.999       9.917       9.795       9.579       9.188       8.501       7.353       5.571       3.072      3.0465E-02

 HEAD WILL BE SAVED ON UNIT   51 AT END OF TIME STEP    4, STRESS PERIOD    2

 DRAWDOWN WILL BE SAVED ON UNIT   52 AT END OF TIME STEP    4, STRESS PERIOD    2
1
  VOLUMETRIC BUDGET FOR ENTIRE MODEL AT END OF TIME STEP    4, STRESS PERIOD   2
  ------------------------------------------------------------------------------

     CUMULATIVE VOLUMES      L**3       RATES FOR THIS TIME STEP      L**3/T
     ------------------                 ------------------------

           IN:                                      IN:
           ---                                      ---
             STORAGE =       13498.0205               STORAGE =        1482.1967
       CONSTANT HEAD =           0.0000         CONSTANT HEAD =           0.0000
               WELLS =           0.0000                 WELLS =           0.0000
     HEAD DEP BOUNDS =          72.5846       HEAD DEP BOUNDS =          41.0664

            TOTAL IN =       13570.6055              TOTAL IN =        1523.2631

          OUT:                                     OUT:
          ----                                     ----
             STORAGE =           0.0000               STORAGE =           0.0000
       CONSTANT HEAD =           0.0000         CONSTANT HEAD =           0.0000
               WELLS =           0.0000                 WELLS =           0.0000
     HEAD DEP BOUNDS =       13570.5947       HEAD DEP BOUNDS =        1523.2450

           TOTAL OUT =       13570.5947             TOTAL OUT =        1523.2450

            IN - OUT =       1.0742E-02              IN - OUT =       1.8066E-02

 PERCENT DISCREPANCY =           0.00     PERCENT DISCREPANCY =           0.00






         TIME SUMMARY AT END OF TIME STEP    4 IN STRESS PERIOD    2
                    SECONDS     MINUTES      HOURS       DAYS        YEARS
                    -----------------------------------------------------------
   TIME STEP LENGTH  86400.      1440.0      24.000      1.0000     2.73785E-03
 STRESS PERIOD TIME 3.45600E+05  5760.0      96.000      4.0000     1.09514E-02
         TOTAL TIME 4.32000E+05  7200.0      120.00      5.0000     1.36893E-02
1

 SOLVING FOR HEAD 

 OUTPUT CONTROL FOR STRESS PERIOD    2   TIME STEP    5
    SAVE HEAD FOR ALL LAYERS
    SAVE DRAWDOWN FOR ALL LAYERS
    SAVE BUDGET
    PRINT HEAD FOR ALL LAYERS
    PRINT BUDGET
 UBDSV1 SAVING "         STORAGE" ON UNIT  53 AT TIME STEP  5, STRESS PERIOD   2
 UBDSV2 SAVING "   CONSTANT HEAD" ON UNIT  53 AT TIME STEP  5, STRESS PERIOD   2
 UBDSV1 SAVING "FLOW RIGHT FACE " ON UNIT  53 AT TIME STEP  5, STRESS PERIOD   2
 UBDSV1 SAVING "FLOW FRONT FACE " ON UNIT  53 AT TIME STEP  5, STRESS PERIOD   2
1
              HEAD IN LAYER   1 AT END OF TIME STEP   5 IN STRESS PERIOD    2
  ---------------------------------------------------------------------------

            1           2           3           4           5           6           7           8           9          10
 ........................................................................................................................
   1    9.999       9.865       9.679       9.378       8.877       8.065       6.817       5.033       2.710      2.6870E-02
   2    9.999       9.865       9.679       9.378       8.877       8.065       6.817       5.033       2.710      2.6870E-02
   3    9.999       9.865       9.679       9.378       8.877       8.065       6.817       5.033       2.710      2.6870E-02
   4    9.999       9.865       9.679       9.378       8.877       8.065       6.817       5.033       2.710      2.6870E-02
   5    9.999       9.865       9.679       9.378       8.877       8.065       6.817       5.033       2.710      2.6870E-02
   6    9.999       9.865       9.679       9.378       8.877       8.065       6.817       5.033       2.710      2.6870E-02
   7    9.999       9.865       9.679       9.378       8.877       8.065       6.817       5.033       2.710      2.6870E-02
   8    9.999       9.865       9.679       9.378       8.877       8.065       6.817       5.033       2.710      2.6870E-02
   9    9.999       9.865       9.679       9.378       8.877       8.065       6.817       5.033       2.710      2.6870E-02
  10    9.999       9.865       9.679       9.378       8.877       8.065       6.817       5.033       2.710      2.6870E-02

 HEAD WILL BE SAVED ON UNIT   51 AT END OF TIME STEP    5, STRESS PERIOD    2

 DRAWDOWN WILL BE SAVED ON UNIT   52 AT END OF TIME STEP    5, STRESS PERIOD    2
1
  VOLUMETRIC BUDGET FOR ENTIRE MODEL AT END OF TIME STEP    5, STRESS PERIOD   2
  ------------------------------------------------------------------------------

     CUMULATIVE VOLUMES      L**3       RATES FOR THIS TIME STEP      L**3/T
     ------------------                 ------------------------

           IN:                                      IN:
           ---                                      ---
             STORAGE =       14774.8330               STORAGE =        1276.8127
       CONSTANT HEAD =           0.0000         CONSTANT HEAD =           0.0000
               WELLS =           0.0000                 WELLS =           0.0000
     HEAD DEP BOUNDS =         139.3060       HEAD DEP BOUNDS =          66.7214

            TOTAL IN =       14914.1387              TOTAL IN =        1343.5342

          OUT:                                     OUT:
          ----                                     ----
             STORAGE =           0.0000               STORAGE =           0.0000
       CONSTANT HEAD =           0.0000         CONSTANT HEAD =           0.0000
               WELLS =           0.0000                 WELLS =           0.0000
     HEAD DEP BOUNDS =       14914.1191       HEAD DEP BOUNDS =        1343.5248

           TOTAL OUT =       14914.1191             TOTAL OUT =        1343.5248

            IN - OUT =       1.9531E-02              IN - OUT =       9.3994E-03

 PERCENT DISCREPANCY =           0.00     PERCENT DISCREPANCY =           0.00






         TIME SUMMARY AT END OF TIME STEP    5 IN STRESS PERIOD    2
                    SECONDS     MINUTES      HOURS       DAYS        YEARS
                    -----------------------------------------------------------
   TIME STEP LENGTH  86400.      1440.0      24.000      1.0000     2.73785E-03
 STRESS PERIOD TIME 4.32000E+05  7200.0      120.00      5.0000     1.36893E-02
         TOTAL TIME 5.18400E+05  8640.0      144.00      6.0000     1.64271E-02
1

 SOLVING FOR HEAD 

 OUTPUT CONTROL FOR STRESS PERIOD    2   TIME STEP    6
    SAVE HEAD FOR ALL LAYERS
    SAVE DRAWDOWN FOR ALL LAYERS
    SAVE BUDGET
    PRINT HEAD FOR ALL LAYERS
    PRINT BUDGET
 UBDSV1 SAVING "         STORAGE" ON UNIT  53 AT TIME STEP  6, STRESS PERIOD   2
 UBDSV2 SAVING "   CONSTANT HEAD" ON UNIT  53 AT TIME STEP  6, STRESS PERIOD   2
 UBDSV1 SAVING "FLOW RIGHT FACE " ON UNIT  53 AT TIME STEP  6, STRESS PERIOD   2
 UBDSV1 SAVING "FLOW FRONT FACE " ON UNIT  53 AT TIME STEP  6, STRESS PERIOD   2
1
              HEAD IN LAYER   1 AT END OF TIME STEP   6 IN STRESS PERIOD    2
  ---------------------------------------------------------------------------

            1           2           3           4           5           6           7           8           9          10
 ........................................................................................................................
   1    9.998       9.804       9.550       9.166       8.570       7.667       6.367       4.617       2.450      2.4287E-02
   2    9.998       9.804       9.550       9.166       8.570       7.667       6.367       4.617       2.450      2.4287E-02
   3    9.998       9.804       9.550       9.166       8.570       7.667       6.367       4.617       2.450      2.4287E-02
   4    9.998       9.804       9.550       9.166       8.570       7.667       6.367       4.617       2.450      2.4287E-02
   5    9.998       9.804       9.550       9.166       8.570       7.667       6.367       4.617       2.450      2.4287E-02
   6    9.998       9.804       9.550       9.166       8.570       7.667       6.367       4.617       2.450      2.4287E-02
   7    9.998       9.804       9.550       9.166       8.570       7.667       6.367       4.617       2.450      2.4287E-02
   8    9.998       9.804       9.550       9.166       8.570       7.667       6.367       4.617       2.450      2.4287E-02
   9    9.998       9.804       9.550       9.166       8.570       7.667       6.367       4.617       2.450      2.4287E-02
  10    9.998       9.804       9.550       9.166       8.570       7.667       6.367       4.617       2.450      2.4287E-02

 HEAD WILL BE SAVED ON UNIT   51 AT END OF TIME STEP    6, STRESS PERIOD    2

 DRAWDOWN WILL BE SAVED ON UNIT   52 AT END OF TIME STEP    6, STRESS PERIOD    2
1
  VOLUMETRIC BUDGET FOR ENTIRE MODEL AT END OF TIME STEP    6, STRESS PERIOD   2
  ------------------------------------------------------------------------------

     CUMULATIVE VOLUMES      L**3       RATES FOR THIS TIME STEP      L**3/T
     ------------------                 ------------------------

           IN:                                      IN:
           ---                                      ---
             STORAGE =       15892.4844               STORAGE =        1117.6511
       CONSTANT HEAD =           0.0000         CONSTANT HEAD =           0.0000
               WELLS =           0.0000                 WELLS =           0.0000
     HEAD DEP BOUNDS =         236.0002       HEAD DEP BOUNDS =          96.6942

            TOTAL IN =       16128.4844              TOTAL IN =        1214.3453

          OUT:                                     OUT:
          ----                                     ----
             STORAGE =           0.0000               STORAGE =           0.0000
       CONSTANT HEAD =           0.0000         CONSTANT HEAD =           0.0000
               WELLS =           0.0000                 WELLS =           0.0000
     HEAD DEP BOUNDS =       16128.4736       HEAD DEP BOUNDS =        1214.3546

           TOTAL OUT =       16128.4736             TOTAL OUT =        1214.3546

            IN - OUT =       1.0742E-02              IN - OUT =      -9.2773E-03

 PERCENT DISCREPANCY =           0.00     PERCENT DISCREPANCY =          -0.00






         TIME SUMMARY AT END OF TIME STEP    6 IN STRESS PERIOD    2
                    SECONDS     MINUTES      HOURS       DAYS        YEARS
                    -----------------------------------------------------------
   TIME STEP LENGTH  86400.      1440.0      24.000      1.0000     2.73785E-03
 STRESS PERIOD TIME 5.18400E+05  8640.0      144.00      6.0000     1.64271E-02
         TOTAL TIME 6.04800E+05  10080.      168.00      7.0000     1.91650E-02
1

 SOLVING FOR HEAD 

 OUTPUT CONTROL FOR STRESS PERIOD    2   TIME STEP    7
    SAVE HEAD FOR ALL LAYERS
    SAVE DRAWDOWN FOR ALL LAYERS
    SAVE BUDGET
    PRINT HEAD FOR ALL LAYERS
    PRINT BUDGET
 UBDSV1 SAVING "         STORAGE" ON UNIT  53 AT TIME STEP  7, STRESS PERIOD   2
 UBDSV2 SAVING "   CONSTANT HEAD" ON UNIT  53 AT TIME STEP  7, STRESS PERIOD   2
 UBDSV1 SAVING "FLOW RIGHT FACE " ON UNIT  53 AT TIME STEP  7, STRESS PERIOD   2
 UBDSV1 SAVING "FLOW FRONT FACE " ON UNIT  53 AT TIME STEP  7, STRESS PERIOD   2
1
              HEAD IN LAYER   1 AT END OF TIME STEP   7 IN STRESS PERIOD    2
  ---------------------------------------------------------------------------

            1           2           3           4           5           6           7           8           9          10
 ........................................................................................................................
   1    9.998       9.739       9.414       8.953       8.278       7.311       5.988       4.286       2.253      2.2325E-02
   2    9.998       9.739       9.414       8.953       8.278       7.311       5.988       4.286       2.253      2.2325E-02
   3    9.998       9.739       9.414       8.953       8.278       7.311       5.988       4.286       2.253      2.2325E-02
   4    9.998       9.739       9.414       8.953       8.278       7.311       5.988       4.286       2.253      2.2325E-02
   5    9.998       9.739       9.414       8.953       8.278       7.311       5.988       4.286       2.253      2.2325E-02
   6    9.998       9.739       9.414       8.953       8.278       7.311       5.988       4.286       2.253      2.2325E-02
   7    9.998       9.739       9.414       8.953       8.278       7.311       5.988       4.286       2.253      2.2325E-02
   8    9.998       9.739       9.414       8.953       8.278       7.311       5.988       4.286       2.253      2.2325E-02
   9    9.998       9.739       9.414       8.953       8.278       7.311       5.988       4.286       2.253      2.2325E-02
  10    9.998       9.739       9.414       8.953       8.278       7.311       5.988       4.286       2.253      2.2325E-02

 HEAD WILL BE SAVED ON UNIT   51 AT END OF TIME STEP    7, STRESS PERIOD    2

 DRAWDOWN WILL BE SAVED ON UNIT   52 AT END OF TIME STEP    7, STRESS PERIOD    2
1
  VOLUMETRIC BUDGET FOR ENTIRE MODEL AT END OF TIME STEP    7, STRESS PERIOD   2
  ------------------------------------------------------------------------------

     CUMULATIVE VOLUMES      L**3       RATES FOR THIS TIME STEP      L**3/T
     ------------------                 ------------------------

           IN:                                      IN:
           ---                                      ---
             STORAGE =       16879.4316               STORAGE =         986.9474
       CONSTANT HEAD =           0.0000         CONSTANT HEAD =           0.0000
               WELLS =           0.0000                 WELLS =           0.0000
     HEAD DEP BOUNDS =         365.3090       HEAD DEP BOUNDS =         129.3087

            TOTAL IN =       17244.7402              TOTAL IN =        1116.2561

          OUT:                                     OUT:
          ----                                     ----
             STORAGE =           0.0000               STORAGE =           0.0000
       CONSTANT HEAD =           0.0000         CONSTANT HEAD =           0.0000
               WELLS =           0.0000                 WELLS =           0.0000
     HEAD DEP BOUNDS =       17244.7168       HEAD DEP BOUNDS =        1116.2426

           TOTAL OUT =       17244.7168             TOTAL OUT =        1116.2426

            IN - OUT =       2.3438E-02              IN - OUT =       1.3550E-02

 PERCENT DISCREPANCY =           0.00     PERCENT DISCREPANCY =           0.00






         TIME SUMMARY AT END OF TIME STEP    7 IN STRESS PERIOD    2
                    SECONDS     MINUTES      HOURS       DAYS        YEARS
                    -----------------------------------------------------------
   TIME STEP LENGTH  86400.      1440.0      24.000      1.0000     2.73785E-03
 STRESS PERIOD TIME 6.04800E+05  10080.      168.00      7.0000     1.91650E-02
         TOTAL TIME 6.91200E+05  11520.      192.00      8.0000     2.19028E-02
1

 SOLVING FOR HEAD 

 OUTPUT CONTROL FOR STRESS PERIOD    2   TIME STEP    8
    SAVE HEAD FOR ALL LAYERS
    SAVE DRAWDOWN FOR ALL LAYERS
    SAVE BUDGET
    PRINT HEAD FOR ALL LAYERS
    PRINT BUDGET
 UBDSV1 SAVING "         STORAGE" ON UNIT  53 AT TIME STEP  8, STRESS PERIOD   2
 UBDSV2 SAVING "   CONSTANT HEAD" ON UNIT  53 AT TIME STEP  8, STRESS PERIOD   2
 UBDSV1 SAVING "FLOW RIGHT FACE " ON UNIT  53 AT TIME STEP  8, STRESS PERIOD   2
 UBDSV1 SAVING "FLOW FRONT FACE " ON UNIT  53 AT TIME STEP  8, STRESS PERIOD   2
1
              HEAD IN LAYER   1 AT END OF TIME STEP   8 IN STRESS PERIOD    2
  ---------------------------------------------------------------------------

            1           2           3           4           5           6           7           8           9          10
 ........................................................................................................................
   1    9.997       9.671       9.277       8.745       8.006       6.994       5.666       4.016       2.097      2.0774E-02
   2    9.997       9.671       9.277       8.745       8.006       6.994       5.666       4.016       2.097      2.0774E-02
   3    9.997       9.671       9.277       8.745       8.006       6.994       5.666       4.016       2.097      2.0774E-02
   4    9.997       9.671       9.277       8.745       8.006       6.994       5.666       4.016       2.097      2.0774E-02
   5    9.997       9.671       9.277       8.745       8.006       6.994       5.666       4.016       2.097      2.0774E-02
   6    9.997       9.671       9.277       8.745       8.006       6.994       5.666       4.016       2.097      2.0774E-02
   7    9.997       9.671       9.277       8.745       8.006       6.994       5.666       4.016       2.097      2.0774E-02
   8    9.997       9.671       9.277       8.745       8.006       6.994       5.666       4.016       2.097      2.0774E-02
   9    9.997       9.671       9.277       8.745       8.006       6.994       5.666       4.016       2.097      2.0774E-02
  10    9.997       9.671       9.277       8.745       8.006       6.994       5.666       4.016       2.097      2.0774E-02

 HEAD WILL BE SAVED ON UNIT   51 AT END OF TIME STEP    8, STRESS PERIOD    2

 DRAWDOWN WILL BE SAVED ON UNIT   52 AT END OF TIME STEP    8, STRESS PERIOD    2
1
  VOLUMETRIC BUDGET FOR ENTIRE MODEL AT END OF TIME STEP    8, STRESS PERIOD   2
  ------------------------------------------------------------------------------

     CUMULATIVE VOLUMES      L**3       RATES FOR THIS TIME STEP      L**3/T
     ------------------                 ------------------------

           IN:                                      IN:
           ---                                      ---
             STORAGE =       17755.1875               STORAGE =         875.7559
       CONSTANT HEAD =           0.0000         CONSTANT HEAD =           0.0000
               WELLS =           0.0000                 WELLS =           0.0000
     HEAD DEP BOUNDS =         528.2602       HEAD DEP BOUNDS =         162.9512

            TOTAL IN =       18283.4473              TOTAL IN =        1038.7070

          OUT:                                     OUT:
          ----                                     ----
             STORAGE =           0.0000               STORAGE =           0.0000
       CONSTANT HEAD =           0.0000         CONSTANT HEAD =           0.0000
               WELLS =           0.0000                 WELLS =           0.0000
     HEAD DEP BOUNDS =       18283.4082       HEAD DEP BOUNDS =        1038.6908

           TOTAL OUT =       18283.4082             TOTAL OUT =        1038.6908

            IN - OUT =       3.9062E-02              IN - OUT =       1.6235E-02

 PERCENT DISCREPANCY =           0.00     PERCENT DISCREPANCY =           0.00






         TIME SUMMARY AT END OF TIME STEP    8 IN STRESS PERIOD    2
                    SECONDS     MINUTES      HOURS       DAYS        YEARS
                    -----------------------------------------------------------
   TIME STEP LENGTH  86400.      1440.0      24.000      1.0000     2.73785E-03
 STRESS PERIOD TIME 6.91200E+05  11520.      192.00      8.0000     2.19028E-02
         TOTAL TIME 7.77600E+05  12960.      216.00      9.0000     2.46407E-02
1

 SOLVING FOR HEAD 

 OUTPUT CONTROL FOR STRESS PERIOD    2   TIME STEP    9
    SAVE HEAD FOR ALL LAYERS
    SAVE DRAWDOWN FOR ALL LAYERS
    SAVE BUDGET
    PRINT HEAD FOR ALL LAYERS
    PRINT BUDGET
 UBDSV1 SAVING "         STORAGE" ON UNIT  53 AT TIME STEP  9, STRESS PERIOD   2
 UBDSV2 SAVING "   CONSTANT HEAD" ON UNIT  53 AT TIME STEP  9, STRESS PERIOD   2
 UBDSV1 SAVING "FLOW RIGHT FACE " ON UNIT  53 AT TIME STEP  9, STRESS PERIOD   2
 UBDSV1 SAVING "FLOW FRONT FACE " ON UNIT  53 AT TIME STEP  9, STRESS PERIOD   2
1
              HEAD IN LAYER   1 AT END OF TIME STEP   9 IN STRESS PERIOD    2
  ---------------------------------------------------------------------------

            1           2           3           4           5           6           7           8           9          10
 ........................................................................................................................
   1    9.997       9.603       9.143       8.548       7.756       6.714       5.391       3.792       1.969      1.9511E-02
   2    9.997       9.603       9.143       8.548       7.756       6.714       5.391       3.792       1.969      1.9511E-02
   3    9.997       9.603       9.143       8.548       7.756       6.714       5.391       3.792       1.969      1.9511E-02
   4    9.997       9.603       9.143       8.548       7.756       6.714       5.391       3.792       1.969      1.9511E-02
   5    9.997       9.603       9.143       8.548       7.756       6.714       5.391       3.792       1.969      1.9511E-02
   6    9.997       9.603       9.143       8.548       7.756       6.714       5.391       3.792       1.969      1.9511E-02
   7    9.997       9.603       9.143       8.548       7.756       6.714       5.391       3.792       1.969      1.9511E-02
   8    9.997       9.603       9.143       8.548       7.756       6.714       5.391       3.792       1.969      1.9511E-02
   9    9.997       9.603       9.143       8.548       7.756       6.714       5.391       3.792       1.969      1.9511E-02
  10    9.997       9.603       9.143       8.548       7.756       6.714       5.391       3.792       1.969      1.9511E-02

 HEAD WILL BE SAVED ON UNIT   51 AT END OF TIME STEP    9, STRESS PERIOD    2

 DRAWDOWN WILL BE SAVED ON UNIT   52 AT END OF TIME STEP    9, STRESS PERIOD    2
1
  VOLUMETRIC BUDGET FOR ENTIRE MODEL AT END OF TIME STEP    9, STRESS PERIOD   2
  ------------------------------------------------------------------------------

     CUMULATIVE VOLUMES      L**3       RATES FOR THIS TIME STEP      L**3/T
     ------------------                 ------------------------

           IN:                                      IN:
           ---                                      ---
             STORAGE =       18534.3652               STORAGE =         779.1783
       CONSTANT HEAD =           0.0000         CONSTANT HEAD =           0.0000
               WELLS =           0.0000                 WELLS =           0.0000
     HEAD DEP BOUNDS =         724.6620       HEAD DEP BOUNDS =         196.4018

            TOTAL IN =       19259.0273              TOTAL IN =         975.5801

          OUT:                                     OUT:
          ----                                     ----
             STORAGE =           0.0000               STORAGE =           0.0000
       CONSTANT HEAD =           0.0000         CONSTANT HEAD =           0.0000
               WELLS =           0.0000                 WELLS =           0.0000
     HEAD DEP BOUNDS =       19258.9785       HEAD DEP BOUNDS =         975.5712

           TOTAL OUT =       19258.9785             TOTAL OUT =         975.5712

            IN - OUT =       4.8828E-02              IN - OUT =       8.8501E-03

 PERCENT DISCREPANCY =           0.00     PERCENT DISCREPANCY =           0.00






         TIME SUMMARY AT END OF TIME STEP    9 IN STRESS PERIOD    2
                    SECONDS     MINUTES      HOURS       DAYS        YEARS
                    -----------------------------------------------------------
   TIME STEP LENGTH  86400.      1440.0      24.000      1.0000     2.73785E-03
 STRESS PERIOD TIME 7.77600E+05  12960.      216.00      9.0000     2.46407E-02
         TOTAL TIME 8.64000E+05  14400.      240.00      10.000     2.73785E-02
1

 SOLVING FOR HEAD 

 OUTPUT CONTROL FOR STRESS PERIOD    2   TIME STEP   10
    SAVE HEAD FOR ALL LAYERS
    SAVE DRAWDOWN FOR ALL LAYERS
    SAVE BUDGET
    PRINT HEAD FOR ALL LAYERS
    PRINT BUDGET
 UBDSV1 SAVING "         STORAGE" ON UNIT  53 AT TIME STEP 10, STRESS PERIOD   2
 UBDSV2 SAVING "   CONSTANT HEAD" ON UNIT  53 AT TIME STEP 10, STRESS PERIOD   2
 UBDSV1 SAVING "FLOW RIGHT FACE " ON UNIT  53 AT TIME STEP 10, STRESS PERIOD   2
 UBDSV1 SAVING "FLOW FRONT FACE " ON UNIT  53 AT TIME STEP 10, STRESS PERIOD   2
1
              HEAD IN LAYER   1 AT END OF TIME STEP  10 IN STRESS PERIOD    2
  ---------------------------------------------------------------------------

            1           2           3           4           5           6           7           8           9          10
 ........................................................................................................................
   1    9.996       9.538       9.015       8.363       7.528       6.465       5.153       3.603       1.864      1.8461E-02
   2    9.996       9.538       9.015       8.363       7.528       6.465       5.153       3.603       1.864      1.8461E-02
   3    9.996       9.538       9.015       8.363       7.528       6.465       5.153       3.603       1.864      1.8461E-02
   4    9.996       9.538       9.015       8.363       7.528       6.465       5.153       3.603       1.864      1.8461E-02
   5    9.996       9.538       9.015       8.363       7.528       6.465       5.153       3.603       1.864      1.8461E-02
   6    9.996       9.538       9.015       8.363       7.528       6.465       5.153       3.603       1.864      1.8461E-02
   7    9.996       9.538       9.015       8.363       7.528       6.465       5.153       3.603       1.864      1.8461E-02
   8    9.996       9.538       9.015       8.363       7.528       6.465       5.153       3.603       1.864      1.8461E-02
   9    9.996       9.538       9.015       8.363       7.528       6.465       5.153       3.603       1.864      1.8461E-02
  10    9.996       9.538       9.015       8.363       7.528       6.465       5.153       3.603       1.864      1.8461E-02

 HEAD WILL BE SAVED ON UNIT   51 AT END OF TIME STEP   10, STRESS PERIOD    2

 DRAWDOWN WILL BE SAVED ON UNIT   52 AT END OF TIME STEP   10, STRESS PERIOD    2
1
  VOLUMETRIC BUDGET FOR ENTIRE MODEL AT END OF TIME STEP   10, STRESS PERIOD   2
  ------------------------------------------------------------------------------

     CUMULATIVE VOLUMES      L**3       RATES FOR THIS TIME STEP      L**3/T
     ------------------                 ------------------------

           IN:                                      IN:
           ---                                      ---
             STORAGE =       19228.6543               STORAGE =         694.2896
       CONSTANT HEAD =           0.0000         CONSTANT HEAD =           0.0000
               WELLS =           0.0000                 WELLS =           0.0000
     HEAD DEP BOUNDS =         953.4413       HEAD DEP BOUNDS =         228.7793

            TOTAL IN =       20182.0957              TOTAL IN =         923.0689

          OUT:                                     OUT:
          ----                                     ----
             STORAGE =           0.0000               STORAGE =           0.0000
       CONSTANT HEAD =           0.0000         CONSTANT HEAD =           0.0000
               WELLS =           0.0000                 WELLS =           0.0000
     HEAD DEP BOUNDS =       20182.0430       HEAD DEP BOUNDS =         923.0643

           TOTAL OUT =       20182.0430             TOTAL OUT =         923.0643

            IN - OUT =       5.2734E-02              IN - OUT =       4.5776E-03

 PERCENT DISCREPANCY =           0.00     PERCENT DISCREPANCY =           0.00






         TIME SUMMARY AT END OF TIME STEP   10 IN STRESS PERIOD    2
                    SECONDS     MINUTES      HOURS       DAYS        YEARS
                    -----------------------------------------------------------
   TIME STEP LENGTH  86400.      1440.0      24.000      1.0000     2.73785E-03
 STRESS PERIOD TIME 8.64000E+05  14400.      240.00      10.000     2.73785E-02
         TOTAL TIME 9.50400E+05  15840.      264.00      11.000     3.01164E-02
1

 SOLVING FOR HEAD 

 OUTPUT CONTROL FOR STRESS PERIOD    2   TIME STEP   11
    SAVE HEAD FOR ALL LAYERS
    SAVE DRAWDOWN FOR ALL LAYERS
    SAVE BUDGET
    PRINT HEAD FOR ALL LAYERS
    PRINT BUDGET
 UBDSV1 SAVING "         STORAGE" ON UNIT  53 AT TIME STEP 11, STRESS PERIOD   2
 UBDSV2 SAVING "   CONSTANT HEAD" ON UNIT  53 AT TIME STEP 11, STRESS PERIOD   2
 UBDSV1 SAVING "FLOW RIGHT FACE " ON UNIT  53 AT TIME STEP 11, STRESS PERIOD   2
 UBDSV1 SAVING "FLOW FRONT FACE " ON UNIT  53 AT TIME STEP 11, STRESS PERIOD   2
1
              HEAD IN LAYER   1 AT END OF TIME STEP  11 IN STRESS PERIOD    2
  ---------------------------------------------------------------------------

            1           2           3           4           5           6           7           8           9          10
 ........................................................................................................................
   1    9.996       9.476       8.895       8.193       7.322       6.244       4.946       3.441       1.774      1.7573E-02
   2    9.996       9.476       8.895       8.193       7.322       6.244       4.946       3.441       1.774      1.7573E-02
   3    9.996       9.476       8.895       8.193       7.322       6.244       4.946       3.441       1.774      1.7573E-02
   4    9.996       9.476       8.895       8.193       7.322       6.244       4.946       3.441       1.774      1.7573E-02
   5    9.996       9.476       8.895       8.193       7.322       6.244       4.946       3.441       1.774      1.7573E-02
   6    9.996       9.476       8.895       8.193       7.322       6.244       4.946       3.441       1.774      1.7573E-02
   7    9.996       9.476       8.895       8.193       7.322       6.244       4.946       3.441       1.774      1.7573E-02
   8    9.996       9.476       8.895       8.193       7.322       6.244       4.946       3.441       1.774      1.7573E-02
   9    9.996       9.476       8.895       8.193       7.322       6.244       4.946       3.441       1.774      1.7573E-02
  10    9.996       9.476       8.895       8.193       7.322       6.244       4.946       3.441       1.774      1.7573E-02

 HEAD WILL BE SAVED ON UNIT   51 AT END OF TIME STEP   11, STRESS PERIOD    2

 DRAWDOWN WILL BE SAVED ON UNIT   52 AT END OF TIME STEP   11, STRESS PERIOD    2
1
  VOLUMETRIC BUDGET FOR ENTIRE MODEL AT END OF TIME STEP   11, STRESS PERIOD   2
  ------------------------------------------------------------------------------

     CUMULATIVE VOLUMES      L**3       RATES FOR THIS TIME STEP      L**3/T
     ------------------                 ------------------------

           IN:                                      IN:
           ---                                      ---
             STORAGE =       19847.8203               STORAGE =         619.1652
       CONSTANT HEAD =           0.0000         CONSTANT HEAD =           0.0000
               WELLS =           0.0000                 WELLS =           0.0000
     HEAD DEP BOUNDS =        1212.9434       HEAD DEP BOUNDS =         259.5020

            TOTAL IN =       21060.7637              TOTAL IN =         878.6672

          OUT:                                     OUT:
          ----                                     ----
             STORAGE =           0.0000               STORAGE =           0.0000
       CONSTANT HEAD =           0.0000         CONSTANT HEAD =           0.0000
               WELLS =           0.0000                 WELLS =           0.0000
     HEAD DEP BOUNDS =       21060.7031       HEAD DEP BOUNDS =         878.6592

           TOTAL OUT =       21060.7031             TOTAL OUT =         878.6592

            IN - OUT =       6.0547E-02              IN - OUT =       7.9956E-03

 PERCENT DISCREPANCY =           0.00     PERCENT DISCREPANCY =           0.00






         TIME SUMMARY AT END OF TIME STEP   11 IN STRESS PERIOD    2
                    SECONDS     MINUTES      HOURS       DAYS        YEARS
                    -----------------------------------------------------------
   TIME STEP LENGTH  86400.      1440.0      24.000      1.0000     2.73785E-03
 STRESS PERIOD TIME 9.50400E+05  15840.      264.00      11.000     3.01164E-02
         TOTAL TIME 1.03680E+06  17280.      288.00      12.000     3.28542E-02
1

 SOLVING FOR HEAD 

 OUTPUT CONTROL FOR STRESS PERIOD    2   TIME STEP   12
    SAVE HEAD FOR ALL LAYERS
    SAVE DRAWDOWN FOR ALL LAYERS
    SAVE BUDGET
    PRINT HEAD FOR ALL LAYERS
    PRINT BUDGET
 UBDSV1 SAVING "         STORAGE" ON UNIT  53 AT TIME STEP 12, STRESS PERIOD   2
 UBDSV2 SAVING "   CONSTANT HEAD" ON UNIT  53 AT TIME STEP 12, STRESS PERIOD   2
 UBDSV1 SAVING "FLOW RIGHT FACE " ON UNIT  53 AT TIME STEP 12, STRESS PERIOD   2
 UBDSV1 SAVING "FLOW FRONT FACE " ON UNIT  53 AT TIME STEP 12, STRESS PERIOD   2
1
              HEAD IN LAYER   1 AT END OF TIME STEP  12 IN STRESS PERIOD    2
  ---------------------------------------------------------------------------

            1           2           3           4           5           6           7           8           9          10
 ........................................................................................................................
   1    9.995       9.418       8.784       8.038       7.136       6.048       4.765       3.301       1.697      1.6813E-02
   2    9.995       9.418       8.784       8.038       7.136       6.048       4.765       3.301       1.697      1.6813E-02
   3    9.995       9.418       8.784       8.038       7.136       6.048       4.765       3.301       1.697      1.6813E-02
   4    9.995       9.418       8.784       8.038       7.136       6.048       4.765       3.301       1.697      1.6813E-02
   5    9.995       9.418       8.784       8.038       7.136       6.048       4.765       3.301       1.697      1.6813E-02
   6    9.995       9.418       8.784       8.038       7.136       6.048       4.765       3.301       1.697      1.6813E-02
   7    9.995       9.418       8.784       8.038       7.136       6.048       4.765       3.301       1.697      1.6813E-02
   8    9.995       9.418       8.784       8.038       7.136       6.048       4.765       3.301       1.697      1.6813E-02
   9    9.995       9.418       8.784       8.038       7.136       6.048       4.765       3.301       1.697      1.6813E-02
  10    9.995       9.418       8.784       8.038       7.136       6.048       4.765       3.301       1.697      1.6813E-02

 HEAD WILL BE SAVED ON UNIT   51 AT END OF TIME STEP   12, STRESS PERIOD    2

 DRAWDOWN WILL BE SAVED ON UNIT   52 AT END OF TIME STEP   12, STRESS PERIOD    2
1
  VOLUMETRIC BUDGET FOR ENTIRE MODEL AT END OF TIME STEP   12, STRESS PERIOD   2
  ------------------------------------------------------------------------------

     CUMULATIVE VOLUMES      L**3       RATES FOR THIS TIME STEP      L**3/T
     ------------------                 ------------------------

           IN:                                      IN:
           ---                                      ---
             STORAGE =       20400.2461               STORAGE =         552.4263
       CONSTANT HEAD =           0.0000         CONSTANT HEAD =           0.0000
               WELLS =           0.0000                 WELLS =           0.0000
     HEAD DEP BOUNDS =        1501.1328       HEAD DEP BOUNDS =         288.1895

            TOTAL IN =       21901.3789              TOTAL IN =         840.6158

          OUT:                                     OUT:
          ----                                     ----
             STORAGE =           0.0000               STORAGE =           0.0000
       CONSTANT HEAD =           0.0000         CONSTANT HEAD =           0.0000
               WELLS =           0.0000                 WELLS =           0.0000
     HEAD DEP BOUNDS =       21901.3340       HEAD DEP BOUNDS =         840.6306

           TOTAL OUT =       21901.3340             TOTAL OUT =         840.6306

            IN - OUT =       4.4922E-02              IN - OUT =      -1.4709E-02

 PERCENT DISCREPANCY =           0.00     PERCENT DISCREPANCY =          -0.00






         TIME SUMMARY AT END OF TIME STEP   12 IN STRESS PERIOD    2
                    SECONDS     MINUTES      HOURS       DAYS        YEARS
                    -----------------------------------------------------------
   TIME STEP LENGTH  86400.      1440.0      24.000      1.0000     2.73785E-03
 STRESS PERIOD TIME 1.03680E+06  17280.      288.00      12.000     3.28542E-02
         TOTAL TIME 1.12320E+06  18720.      312.00      13.000     3.55921E-02
1

 SOLVING FOR HEAD 

 OUTPUT CONTROL FOR STRESS PERIOD    2   TIME STEP   13
    SAVE HEAD FOR ALL LAYERS
    SAVE DRAWDOWN FOR ALL LAYERS
    SAVE BUDGET
    PRINT HEAD FOR ALL LAYERS
    PRINT BUDGET
 UBDSV1 SAVING "         STORAGE" ON UNIT  53 AT TIME STEP 13, STRESS PERIOD   2
 UBDSV2 SAVING "   CONSTANT HEAD" ON UNIT  53 AT TIME STEP 13, STRESS PERIOD   2
 UBDSV1 SAVING "FLOW RIGHT FACE " ON UNIT  53 AT TIME STEP 13, STRESS PERIOD   2
 UBDSV1 SAVING "FLOW FRONT FACE " ON UNIT  53 AT TIME STEP 13, STRESS PERIOD   2
1
              HEAD IN LAYER   1 AT END OF TIME STEP  13 IN STRESS PERIOD    2
  ---------------------------------------------------------------------------

            1           2           3           4           5           6           7           8           9          10
 ........................................................................................................................
   1    9.995       9.365       8.681       7.896       6.969       5.875       4.606       3.180       1.631      1.6155E-02
   2    9.995       9.365       8.681       7.896       6.969       5.875       4.606       3.180       1.631      1.6155E-02
   3    9.995       9.365       8.681       7.896       6.969       5.875       4.606       3.180       1.631      1.6155E-02
   4    9.995       9.365       8.681       7.896       6.969       5.875       4.606       3.180       1.631      1.6155E-02
   5    9.995       9.365       8.681       7.896       6.969       5.875       4.606       3.180       1.631      1.6155E-02
   6    9.995       9.365       8.681       7.896       6.969       5.875       4.606       3.180       1.631      1.6155E-02
   7    9.995       9.365       8.681       7.896       6.969       5.875       4.606       3.180       1.631      1.6155E-02
   8    9.995       9.365       8.681       7.896       6.969       5.875       4.606       3.180       1.631      1.6155E-02
   9    9.995       9.365       8.681       7.896       6.969       5.875       4.606       3.180       1.631      1.6155E-02
  10    9.995       9.365       8.681       7.896       6.969       5.875       4.606       3.180       1.631      1.6155E-02

 HEAD WILL BE SAVED ON UNIT   51 AT END OF TIME STEP   13, STRESS PERIOD    2

 DRAWDOWN WILL BE SAVED ON UNIT   52 AT END OF TIME STEP   13, STRESS PERIOD    2
1
  VOLUMETRIC BUDGET FOR ENTIRE MODEL AT END OF TIME STEP   13, STRESS PERIOD   2
  ------------------------------------------------------------------------------

     CUMULATIVE VOLUMES      L**3       RATES FOR THIS TIME STEP      L**3/T
     ------------------                 ------------------------

           IN:                                      IN:
           ---                                      ---
             STORAGE =       20893.2578               STORAGE =         493.0120
       CONSTANT HEAD =           0.0000         CONSTANT HEAD =           0.0000
               WELLS =           0.0000                 WELLS =           0.0000
     HEAD DEP BOUNDS =        1815.8492       HEAD DEP BOUNDS =         314.7165

            TOTAL IN =       22709.1074              TOTAL IN =         807.7285

          OUT:                                     OUT:
          ----                                     ----
             STORAGE =           0.0000               STORAGE =           0.0000
       CONSTANT HEAD =           0.0000         CONSTANT HEAD =           0.0000
               WELLS =           0.0000                 WELLS =           0.0000
     HEAD DEP BOUNDS =       22709.0820       HEAD DEP BOUNDS =         807.7474

           TOTAL OUT =       22709.0820             TOTAL OUT =         807.7474

            IN - OUT =       2.5391E-02              IN - OUT =      -1.8860E-02

 PERCENT DISCREPANCY =           0.00     PERCENT DISCREPANCY =          -0.00






         TIME SUMMARY AT END OF TIME STEP   13 IN STRESS PERIOD    2
                    SECONDS     MINUTES      HOURS       DAYS        YEARS
                    -----------------------------------------------------------
   TIME STEP LENGTH  86400.      1440.0      24.000      1.0000     2.73785E-03
 STRESS PERIOD TIME 1.12320E+06  18720.      312.00      13.000     3.55921E-02
         TOTAL TIME 1.20960E+06  20160.      336.00      14.000     3.83299E-02
1

 SOLVING FOR HEAD 

 OUTPUT CONTROL FOR STRESS PERIOD    2   TIME STEP   14
    SAVE HEAD FOR ALL LAYERS
    SAVE DRAWDOWN FOR ALL LAYERS
    SAVE BUDGET
    PRINT HEAD FOR ALL LAYERS
    PRINT BUDGET
 UBDSV1 SAVING "         STORAGE" ON UNIT  53 AT TIME STEP 14, STRESS PERIOD   2
 UBDSV2 SAVING "   CONSTANT HEAD" ON UNIT  53 AT TIME STEP 14, STRESS PERIOD   2
 UBDSV1 SAVING "FLOW RIGHT FACE " ON UNIT  53 AT TIME STEP 14, STRESS PERIOD   2
 UBDSV1 SAVING "FLOW FRONT FACE " ON UNIT  53 AT TIME STEP 14, STRESS PERIOD   2
1
              HEAD IN LAYER   1 AT END OF TIME STEP  14 IN STRESS PERIOD    2
  ---------------------------------------------------------------------------

            1           2           3           4           5           6           7           8           9          10
 ........................................................................................................................
   1    9.994       9.316       8.588       7.768       6.819       5.720       4.466       3.073       1.573      1.5582E-02
   2    9.994       9.316       8.588       7.768       6.819       5.720       4.466       3.073       1.573      1.5582E-02
   3    9.994       9.316       8.588       7.768       6.819       5.720       4.466       3.073       1.573      1.5582E-02
   4    9.994       9.316       8.588       7.768       6.819       5.720       4.466       3.073       1.573      1.5582E-02
   5    9.994       9.316       8.588       7.768       6.819       5.720       4.466       3.073       1.573      1.5582E-02
   6    9.994       9.316       8.588       7.768       6.819       5.720       4.466       3.073       1.573      1.5582E-02
   7    9.994       9.316       8.588       7.768       6.819       5.720       4.466       3.073       1.573      1.5582E-02
   8    9.994       9.316       8.588       7.768       6.819       5.720       4.466       3.073       1.573      1.5582E-02
   9    9.994       9.316       8.588       7.768       6.819       5.720       4.466       3.073       1.573      1.5582E-02
  10    9.994       9.316       8.588       7.768       6.819       5.720       4.466       3.073       1.573      1.5582E-02

 HEAD WILL BE SAVED ON UNIT   51 AT END OF TIME STEP   14, STRESS PERIOD    2

 DRAWDOWN WILL BE SAVED ON UNIT   52 AT END OF TIME STEP   14, STRESS PERIOD    2
1
  VOLUMETRIC BUDGET FOR ENTIRE MODEL AT END OF TIME STEP   14, STRESS PERIOD   2
  ------------------------------------------------------------------------------

     CUMULATIVE VOLUMES      L**3       RATES FOR THIS TIME STEP      L**3/T
     ------------------                 ------------------------

           IN:                                      IN:
           ---                                      ---
             STORAGE =       21333.3105               STORAGE =         440.0522
       CONSTANT HEAD =           0.0000         CONSTANT HEAD =           0.0000
               WELLS =           0.0000                 WELLS =           0.0000
     HEAD DEP BOUNDS =        2154.8936       HEAD DEP BOUNDS =         339.0444

            TOTAL IN =       23488.2031              TOTAL IN =         779.0967

          OUT:                                     OUT:
          ----                                     ----
             STORAGE =           0.0000               STORAGE =           0.0000
       CONSTANT HEAD =           0.0000         CONSTANT HEAD =           0.0000
               WELLS =           0.0000                 WELLS =           0.0000
     HEAD DEP BOUNDS =       23488.1836       HEAD DEP BOUNDS =         779.1021

           TOTAL OUT =       23488.1836             TOTAL OUT =         779.1021

            IN - OUT =       1.9531E-02              IN - OUT =      -5.4321E-03

 PERCENT DISCREPANCY =           0.00     PERCENT DISCREPANCY =          -0.00






         TIME SUMMARY AT END OF TIME STEP   14 IN STRESS PERIOD    2
                    SECONDS     MINUTES      HOURS       DAYS        YEARS
                    -----------------------------------------------------------
   TIME STEP LENGTH  86400.      1440.0      24.000      1.0000     2.73785E-03
 STRESS PERIOD TIME 1.20960E+06  20160.      336.00      14.000     3.83299E-02
         TOTAL TIME 1.29600E+06  21600.      360.00      15.000     4.10678E-02
1

 SOLVING FOR HEAD 

 OUTPUT CONTROL FOR STRESS PERIOD    2   TIME STEP   15
    SAVE HEAD FOR ALL LAYERS
    SAVE DRAWDOWN FOR ALL LAYERS
    SAVE BUDGET
    PRINT HEAD FOR ALL LAYERS
    PRINT BUDGET
 UBDSV1 SAVING "         STORAGE" ON UNIT  53 AT TIME STEP 15, STRESS PERIOD   2
 UBDSV2 SAVING "   CONSTANT HEAD" ON UNIT  53 AT TIME STEP 15, STRESS PERIOD   2
 UBDSV1 SAVING "FLOW RIGHT FACE " ON UNIT  53 AT TIME STEP 15, STRESS PERIOD   2
 UBDSV1 SAVING "FLOW FRONT FACE " ON UNIT  53 AT TIME STEP 15, STRESS PERIOD   2
1
              HEAD IN LAYER   1 AT END OF TIME STEP  15 IN STRESS PERIOD    2
  ---------------------------------------------------------------------------

            1           2           3           4           5           6           7           8           9          10
 ........................................................................................................................
   1    9.994       9.271       8.504       7.652       6.684       5.582       4.343       2.979       1.523      1.5080E-02
   2    9.994       9.271       8.504       7.652       6.684       5.582       4.343       2.979       1.523      1.5080E-02
   3    9.994       9.271       8.504       7.652       6.684       5.582       4.343       2.979       1.523      1.5080E-02
   4    9.994       9.271       8.504       7.652       6.684       5.582       4.343       2.979       1.523      1.5080E-02
   5    9.994       9.271       8.504       7.652       6.684       5.582       4.343       2.979       1.523      1.5080E-02
   6    9.994       9.271       8.504       7.652       6.684       5.582       4.343       2.979       1.523      1.5080E-02
   7    9.994       9.271       8.504       7.652       6.684       5.582       4.343       2.979       1.523      1.5080E-02
   8    9.994       9.271       8.504       7.652       6.684       5.582       4.343       2.979       1.523      1.5080E-02
   9    9.994       9.271       8.504       7.652       6.684       5.582       4.343       2.979       1.523      1.5080E-02
  10    9.994       9.271       8.504       7.652       6.684       5.582       4.343       2.979       1.523      1.5080E-02

 HEAD WILL BE SAVED ON UNIT   51 AT END OF TIME STEP   15, STRESS PERIOD    2

 DRAWDOWN WILL BE SAVED ON UNIT   52 AT END OF TIME STEP   15, STRESS PERIOD    2
1
  VOLUMETRIC BUDGET FOR ENTIRE MODEL AT END OF TIME STEP   15, STRESS PERIOD   2
  ------------------------------------------------------------------------------

     CUMULATIVE VOLUMES      L**3       RATES FOR THIS TIME STEP      L**3/T
     ------------------                 ------------------------

           IN:                                      IN:
           ---                                      ---
             STORAGE =       21726.1230               STORAGE =         392.8123
       CONSTANT HEAD =           0.0000         CONSTANT HEAD =           0.0000
               WELLS =           0.0000                 WELLS =           0.0000
     HEAD DEP BOUNDS =        2516.0737       HEAD DEP BOUNDS =         361.1803

            TOTAL IN =       24242.1973              TOTAL IN =         753.9926

          OUT:                                     OUT:
          ----                                     ----
             STORAGE =           0.0000               STORAGE =           0.0000
       CONSTANT HEAD =           0.0000         CONSTANT HEAD =           0.0000
               WELLS =           0.0000                 WELLS =           0.0000
     HEAD DEP BOUNDS =       24242.1895       HEAD DEP BOUNDS =         754.0062

           TOTAL OUT =       24242.1895             TOTAL OUT =         754.0062

            IN - OUT =       7.8125E-03              IN - OUT =      -1.3611E-02

 PERCENT DISCREPANCY =           0.00     PERCENT DISCREPANCY =          -0.00






         TIME SUMMARY AT END OF TIME STEP   15 IN STRESS PERIOD    2
                    SECONDS     MINUTES      HOURS       DAYS        YEARS
                    -----------------------------------------------------------
   TIME STEP LENGTH  86400.      1440.0      24.000      1.0000     2.73785E-03
 STRESS PERIOD TIME 1.29600E+06  21600.      360.00      15.000     4.10678E-02
         TOTAL TIME 1.38240E+06  23040.      384.00      16.000     4.38056E-02
1

 SOLVING FOR HEAD 

 OUTPUT CONTROL FOR STRESS PERIOD    2   TIME STEP   16
    SAVE HEAD FOR ALL LAYERS
    SAVE DRAWDOWN FOR ALL LAYERS
    SAVE BUDGET
    PRINT HEAD FOR ALL LAYERS
    PRINT BUDGET
 UBDSV1 SAVING "         STORAGE" ON UNIT  53 AT TIME STEP 16, STRESS PERIOD   2
 UBDSV2 SAVING "   CONSTANT HEAD" ON UNIT  53 AT TIME STEP 16, STRESS PERIOD   2
 UBDSV1 SAVING "FLOW RIGHT FACE " ON UNIT  53 AT TIME STEP 16, STRESS PERIOD   2
 UBDSV1 SAVING "FLOW FRONT FACE " ON UNIT  53 AT TIME STEP 16, STRESS PERIOD   2
1
              HEAD IN LAYER   1 AT END OF TIME STEP  16 IN STRESS PERIOD    2
  ---------------------------------------------------------------------------

            1           2           3           4           5           6           7           8           9          10
 ........................................................................................................................
   1    9.994       9.231       8.427       7.548       6.564       5.460       4.233       2.897       1.478      1.4638E-02
   2    9.994       9.231       8.427       7.548       6.564       5.460       4.233       2.897       1.478      1.4638E-02
   3    9.994       9.231       8.427       7.548       6.564       5.460       4.233       2.897       1.478      1.4638E-02
   4    9.994       9.231       8.427       7.548       6.564       5.460       4.233       2.897       1.478      1.4638E-02
   5    9.994       9.231       8.427       7.548       6.564       5.460       4.233       2.897       1.478      1.4638E-02
   6    9.994       9.231       8.427       7.548       6.564       5.460       4.233       2.897       1.478      1.4638E-02
   7    9.994       9.231       8.427       7.548       6.564       5.460       4.233       2.897       1.478      1.4638E-02
   8    9.994       9.231       8.427       7.548       6.564       5.460       4.233       2.897       1.478      1.4638E-02
   9    9.994       9.231       8.427       7.548       6.564       5.460       4.233       2.897       1.478      1.4638E-02
  10    9.994       9.231       8.427       7.548       6.564       5.460       4.233       2.897       1.478      1.4638E-02

 HEAD WILL BE SAVED ON UNIT   51 AT END OF TIME STEP   16, STRESS PERIOD    2

 DRAWDOWN WILL BE SAVED ON UNIT   52 AT END OF TIME STEP   16, STRESS PERIOD    2
1
  VOLUMETRIC BUDGET FOR ENTIRE MODEL AT END OF TIME STEP   16, STRESS PERIOD   2
  ------------------------------------------------------------------------------

     CUMULATIVE VOLUMES      L**3       RATES FOR THIS TIME STEP      L**3/T
     ------------------                 ------------------------

           IN:                                      IN:
           ---                                      ---
             STORAGE =       22076.7852               STORAGE =         350.6613
       CONSTANT HEAD =           0.0000         CONSTANT HEAD =           0.0000
               WELLS =           0.0000                 WELLS =           0.0000
     HEAD DEP BOUNDS =        2897.3333       HEAD DEP BOUNDS =         381.2595

            TOTAL IN =       24974.1191              TOTAL IN =         731.9209

          OUT:                                     OUT:
          ----                                     ----
             STORAGE =           0.0000               STORAGE =           0.0000
       CONSTANT HEAD =           0.0000         CONSTANT HEAD =           0.0000
               WELLS =           0.0000                 WELLS =           0.0000
     HEAD DEP BOUNDS =       24974.1133       HEAD DEP BOUNDS =         731.9232

           TOTAL OUT =       24974.1133             TOTAL OUT =         731.9232

            IN - OUT =       5.8594E-03              IN - OUT =      -2.3193E-03

 PERCENT DISCREPANCY =           0.00     PERCENT DISCREPANCY =          -0.00






         TIME SUMMARY AT END OF TIME STEP   16 IN STRESS PERIOD    2
                    SECONDS     MINUTES      HOURS       DAYS        YEARS
                    -----------------------------------------------------------
   TIME STEP LENGTH  86400.      1440.0      24.000      1.0000     2.73785E-03
 STRESS PERIOD TIME 1.38240E+06  23040.      384.00      16.000     4.38056E-02
         TOTAL TIME 1.46880E+06  24480.      408.00      17.000     4.65435E-02
1

 SOLVING FOR HEAD 

 OUTPUT CONTROL FOR STRESS PERIOD    2   TIME STEP   17
    SAVE HEAD FOR ALL LAYERS
    SAVE DRAWDOWN FOR ALL LAYERS
    SAVE BUDGET
    PRINT HEAD FOR ALL LAYERS
    PRINT BUDGET
 UBDSV1 SAVING "         STORAGE" ON UNIT  53 AT TIME STEP 17, STRESS PERIOD   2
 UBDSV2 SAVING "   CONSTANT HEAD" ON UNIT  53 AT TIME STEP 17, STRESS PERIOD   2
 UBDSV1 SAVING "FLOW RIGHT FACE " ON UNIT  53 AT TIME STEP 17, STRESS PERIOD   2
 UBDSV1 SAVING "FLOW FRONT FACE " ON UNIT  53 AT TIME STEP 17, STRESS PERIOD   2
1
              HEAD IN LAYER   1 AT END OF TIME STEP  17 IN STRESS PERIOD    2
  ---------------------------------------------------------------------------

            1           2           3           4           5           6           7           8           9          10
 ........................................................................................................................
   1    9.993       9.194       8.359       7.454       6.456       5.351       4.136       2.824       1.439      1.4249E-02
   2    9.993       9.194       8.359       7.454       6.456       5.351       4.136       2.824       1.439      1.4249E-02
   3    9.993       9.194       8.359       7.454       6.456       5.351       4.136       2.824       1.439      1.4249E-02
   4    9.993       9.194       8.359       7.454       6.456       5.351       4.136       2.824       1.439      1.4249E-02
   5    9.993       9.194       8.359       7.454       6.456       5.351       4.136       2.824       1.439      1.4249E-02
   6    9.993       9.194       8.359       7.454       6.456       5.351       4.136       2.824       1.439      1.4249E-02
   7    9.993       9.194       8.359       7.454       6.456       5.351       4.136       2.824       1.439      1.4249E-02
   8    9.993       9.194       8.359       7.454       6.456       5.351       4.136       2.824       1.439      1.4249E-02
   9    9.993       9.194       8.359       7.454       6.456       5.351       4.136       2.824       1.439      1.4249E-02
  10    9.993       9.194       8.359       7.454       6.456       5.351       4.136       2.824       1.439      1.4249E-02

 HEAD WILL BE SAVED ON UNIT   51 AT END OF TIME STEP   17, STRESS PERIOD    2

 DRAWDOWN WILL BE SAVED ON UNIT   52 AT END OF TIME STEP   17, STRESS PERIOD    2
1
  VOLUMETRIC BUDGET FOR ENTIRE MODEL AT END OF TIME STEP   17, STRESS PERIOD   2
  ------------------------------------------------------------------------------

     CUMULATIVE VOLUMES      L**3       RATES FOR THIS TIME STEP      L**3/T
     ------------------                 ------------------------

           IN:                                      IN:
           ---                                      ---
             STORAGE =       22389.8262               STORAGE =         313.0417
       CONSTANT HEAD =           0.0000         CONSTANT HEAD =           0.0000
               WELLS =           0.0000                 WELLS =           0.0000
     HEAD DEP BOUNDS =        3296.7051       HEAD DEP BOUNDS =         399.3717

            TOTAL IN =       25686.5312              TOTAL IN =         712.4135

          OUT:                                     OUT:
          ----                                     ----
             STORAGE =           0.0000               STORAGE =           0.0000
       CONSTANT HEAD =           0.0000         CONSTANT HEAD =           0.0000
               WELLS =           0.0000                 WELLS =           0.0000
     HEAD DEP BOUNDS =       25686.5391       HEAD DEP BOUNDS =         712.4261

           TOTAL OUT =       25686.5391             TOTAL OUT =         712.4261

            IN - OUT =      -7.8125E-03              IN - OUT =      -1.2634E-02

 PERCENT DISCREPANCY =          -0.00     PERCENT DISCREPANCY =          -0.00






         TIME SUMMARY AT END OF TIME STEP   17 IN STRESS PERIOD    2
                    SECONDS     MINUTES      HOURS       DAYS        YEARS
                    -----------------------------------------------------------
   TIME STEP LENGTH  86400.      1440.0      24.000      1.0000     2.73785E-03
 STRESS PERIOD TIME 1.46880E+06  24480.      408.00      17.000     4.65435E-02
         TOTAL TIME 1.55520E+06  25920.      432.00      18.000     4.92813E-02
1

 SOLVING FOR HEAD 

 OUTPUT CONTROL FOR STRESS PERIOD    2   TIME STEP   18
    SAVE HEAD FOR ALL LAYERS
    SAVE DRAWDOWN FOR ALL LAYERS
    SAVE BUDGET
    PRINT HEAD FOR ALL LAYERS
    PRINT BUDGET
 UBDSV1 SAVING "         STORAGE" ON UNIT  53 AT TIME STEP 18, STRESS PERIOD   2
 UBDSV2 SAVING "   CONSTANT HEAD" ON UNIT  53 AT TIME STEP 18, STRESS PERIOD   2
 UBDSV1 SAVING "FLOW RIGHT FACE " ON UNIT  53 AT TIME STEP 18, STRESS PERIOD   2
 UBDSV1 SAVING "FLOW FRONT FACE " ON UNIT  53 AT TIME STEP 18, STRESS PERIOD   2
1
              HEAD IN LAYER   1 AT END OF TIME STEP  18 IN STRESS PERIOD    2
  ---------------------------------------------------------------------------

            1           2           3           4           5           6           7           8           9          10
 ........................................................................................................................
   1    9.993       9.161       8.297       7.370       6.360       5.253       4.049       2.759       1.404      1.3903E-02
   2    9.993       9.161       8.297       7.370       6.360       5.253       4.049       2.759       1.404      1.3903E-02
   3    9.993       9.161       8.297       7.370       6.360       5.253       4.049       2.759       1.404      1.3903E-02
   4    9.993       9.161       8.297       7.370       6.360       5.253       4.049       2.759       1.404      1.3903E-02
   5    9.993       9.161       8.297       7.370       6.360       5.253       4.049       2.759       1.404      1.3903E-02
   6    9.993       9.161       8.297       7.370       6.360       5.253       4.049       2.759       1.404      1.3903E-02
   7    9.993       9.161       8.297       7.370       6.360       5.253       4.049       2.759       1.404      1.3903E-02
   8    9.993       9.161       8.297       7.370       6.360       5.253       4.049       2.759       1.404      1.3903E-02
   9    9.993       9.161       8.297       7.370       6.360       5.253       4.049       2.759       1.404      1.3903E-02
  10    9.993       9.161       8.297       7.370       6.360       5.253       4.049       2.759       1.404      1.3903E-02

 HEAD WILL BE SAVED ON UNIT   51 AT END OF TIME STEP   18, STRESS PERIOD    2

 DRAWDOWN WILL BE SAVED ON UNIT   52 AT END OF TIME STEP   18, STRESS PERIOD    2
1
  VOLUMETRIC BUDGET FOR ENTIRE MODEL AT END OF TIME STEP   18, STRESS PERIOD   2
  ------------------------------------------------------------------------------

     CUMULATIVE VOLUMES      L**3       RATES FOR THIS TIME STEP      L**3/T
     ------------------                 ------------------------

           IN:                                      IN:
           ---                                      ---
             STORAGE =       22669.2871               STORAGE =         279.4609
       CONSTANT HEAD =           0.0000         CONSTANT HEAD =           0.0000
               WELLS =           0.0000                 WELLS =           0.0000
     HEAD DEP BOUNDS =        3712.4033       HEAD DEP BOUNDS =         415.6983

            TOTAL IN =       26381.6914              TOTAL IN =         695.1592

          OUT:                                     OUT:
          ----                                     ----
             STORAGE =           0.0000               STORAGE =           0.0000
       CONSTANT HEAD =           0.0000         CONSTANT HEAD =           0.0000
               WELLS =           0.0000                 WELLS =           0.0000
     HEAD DEP BOUNDS =       26381.7070       HEAD DEP BOUNDS =         695.1672

           TOTAL OUT =       26381.7070             TOTAL OUT =         695.1672

            IN - OUT =      -1.5625E-02              IN - OUT =      -7.9956E-03

 PERCENT DISCREPANCY =          -0.00     PERCENT DISCREPANCY =          -0.00






         TIME SUMMARY AT END OF TIME STEP   18 IN STRESS PERIOD    2
                    SECONDS     MINUTES      HOURS       DAYS        YEARS
                    -----------------------------------------------------------
   TIME STEP LENGTH  86400.      1440.0      24.000      1.0000     2.73785E-03
 STRESS PERIOD TIME 1.55520E+06  25920.      432.00      18.000     4.92813E-02
         TOTAL TIME 1.64160E+06  27360.      456.00      19.000     5.20192E-02
1

 SOLVING FOR HEAD 

 OUTPUT CONTROL FOR STRESS PERIOD    2   TIME STEP   19
    SAVE HEAD FOR ALL LAYERS
    SAVE DRAWDOWN FOR ALL LAYERS
    SAVE BUDGET
    PRINT HEAD FOR ALL LAYERS
    PRINT BUDGET
 UBDSV1 SAVING "         STORAGE" ON UNIT  53 AT TIME STEP 19, STRESS PERIOD   2
 UBDSV2 SAVING "   CONSTANT HEAD" ON UNIT  53 AT TIME STEP 19, STRESS PERIOD   2
 UBDSV1 SAVING "FLOW RIGHT FACE " ON UNIT  53 AT TIME STEP 19, STRESS PERIOD   2
 UBDSV1 SAVING "FLOW FRONT FACE " ON UNIT  53 AT TIME STEP 19, STRESS PERIOD   2
1
              HEAD IN LAYER   1 AT END OF TIME STEP  19 IN STRESS PERIOD    2
  ---------------------------------------------------------------------------

            1           2           3           4           5           6           7           8           9          10
 ........................................................................................................................
   1    9.993       9.132       8.241       7.295       6.274       5.167       3.973       2.702       1.373      1.3597E-02
   2    9.993       9.132       8.241       7.295       6.274       5.167       3.973       2.702       1.373      1.3597E-02
   3    9.993       9.132       8.241       7.295       6.274       5.167       3.973       2.702       1.373      1.3597E-02
   4    9.993       9.132       8.241       7.295       6.274       5.167       3.973       2.702       1.373      1.3597E-02
   5    9.993       9.132       8.241       7.295       6.274       5.167       3.973       2.702       1.373      1.3597E-02
   6    9.993       9.132       8.241       7.295       6.274       5.167       3.973       2.702       1.373      1.3597E-02
   7    9.993       9.132       8.241       7.295       6.274       5.167       3.973       2.702       1.373      1.3597E-02
   8    9.993       9.132       8.241       7.295       6.274       5.167       3.973       2.702       1.373      1.3597E-02
   9    9.993       9.132       8.241       7.295       6.274       5.167       3.973       2.702       1.373      1.3597E-02
  10    9.993       9.132       8.241       7.295       6.274       5.167       3.973       2.702       1.373      1.3597E-02

 HEAD WILL BE SAVED ON UNIT   51 AT END OF TIME STEP   19, STRESS PERIOD    2

 DRAWDOWN WILL BE SAVED ON UNIT   52 AT END OF TIME STEP   19, STRESS PERIOD    2
1
  VOLUMETRIC BUDGET FOR ENTIRE MODEL AT END OF TIME STEP   19, STRESS PERIOD   2
  ------------------------------------------------------------------------------

     CUMULATIVE VOLUMES      L**3       RATES FOR THIS TIME STEP      L**3/T
     ------------------                 ------------------------

           IN:                                      IN:
           ---                                      ---
             STORAGE =       22918.7715               STORAGE =         249.4853
       CONSTANT HEAD =           0.0000         CONSTANT HEAD =           0.0000
               WELLS =           0.0000                 WELLS =           0.0000
     HEAD DEP BOUNDS =        4142.7896       HEAD DEP BOUNDS =         430.3864

            TOTAL IN =       27061.5605              TOTAL IN =         679.8716

          OUT:                                     OUT:
          ----                                     ----
             STORAGE =           0.0000               STORAGE =           0.0000
       CONSTANT HEAD =           0.0000         CONSTANT HEAD =           0.0000
               WELLS =           0.0000                 WELLS =           0.0000
     HEAD DEP BOUNDS =       27061.5664       HEAD DEP BOUNDS =         679.8594

           TOTAL OUT =       27061.5664             TOTAL OUT =         679.8594

            IN - OUT =      -5.8594E-03              IN - OUT =       1.2268E-02

 PERCENT DISCREPANCY =          -0.00     PERCENT DISCREPANCY =           0.00






         TIME SUMMARY AT END OF TIME STEP   19 IN STRESS PERIOD    2
                    SECONDS     MINUTES      HOURS       DAYS        YEARS
                    -----------------------------------------------------------
   TIME STEP LENGTH  86400.      1440.0      24.000      1.0000     2.73785E-03
 STRESS PERIOD TIME 1.64160E+06  27360.      456.00      19.000     5.20192E-02
         TOTAL TIME 1.72800E+06  28800.      480.00      20.000     5.47570E-02
1

 SOLVING FOR HEAD 

 OUTPUT CONTROL FOR STRESS PERIOD    2   TIME STEP   20
    SAVE HEAD FOR ALL LAYERS
    SAVE DRAWDOWN FOR ALL LAYERS
    SAVE BUDGET
    PRINT HEAD FOR ALL LAYERS
    PRINT BUDGET
 UBDSV1 SAVING "         STORAGE" ON UNIT  53 AT TIME STEP 20, STRESS PERIOD   2
 UBDSV2 SAVING "   CONSTANT HEAD" ON UNIT  53 AT TIME STEP 20, STRESS PERIOD   2
 UBDSV1 SAVING "FLOW RIGHT FACE " ON UNIT  53 AT TIME STEP 20, STRESS PERIOD   2
 UBDSV1 SAVING "FLOW FRONT FACE " ON UNIT  53 AT TIME STEP 20, STRESS PERIOD   2
1
              HEAD IN LAYER   1 AT END OF TIME STEP  20 IN STRESS PERIOD    2
  ---------------------------------------------------------------------------

            1           2           3           4           5           6           7           8           9          10
 ........................................................................................................................
   1    9.993       9.105       8.192       7.228       6.197       5.089       3.904       2.650       1.346      1.3325E-02
   2    9.993       9.105       8.192       7.228       6.197       5.089       3.904       2.650       1.346      1.3325E-02
   3    9.993       9.105       8.192       7.228       6.197       5.089       3.904       2.650       1.346      1.3325E-02
   4    9.993       9.105       8.192       7.228       6.197       5.089       3.904       2.650       1.346      1.3325E-02
   5    9.993       9.105       8.192       7.228       6.197       5.089       3.904       2.650       1.346      1.3325E-02
   6    9.993       9.105       8.192       7.228       6.197       5.089       3.904       2.650       1.346      1.3325E-02
   7    9.993       9.105       8.192       7.228       6.197       5.089       3.904       2.650       1.346      1.3325E-02
   8    9.993       9.105       8.192       7.228       6.197       5.089       3.904       2.650       1.346      1.3325E-02
   9    9.993       9.105       8.192       7.228       6.197       5.089       3.904       2.650       1.346      1.3325E-02
  10    9.993       9.105       8.192       7.228       6.197       5.089       3.904       2.650       1.346      1.3325E-02

 HEAD WILL BE SAVED ON UNIT   51 AT END OF TIME STEP   20, STRESS PERIOD    2

 DRAWDOWN WILL BE SAVED ON UNIT   52 AT END OF TIME STEP   20, STRESS PERIOD    2
1
  VOLUMETRIC BUDGET FOR ENTIRE MODEL AT END OF TIME STEP   20, STRESS PERIOD   2
  ------------------------------------------------------------------------------

     CUMULATIVE VOLUMES      L**3       RATES FOR THIS TIME STEP      L**3/T
     ------------------                 ------------------------

           IN:                                      IN:
           ---                                      ---
             STORAGE =       23141.4961               STORAGE =         222.7252
       CONSTANT HEAD =           0.0000         CONSTANT HEAD =           0.0000
               WELLS =           0.0000                 WELLS =           0.0000
     HEAD DEP BOUNDS =        4586.3325       HEAD DEP BOUNDS =         443.5429

            TOTAL IN =       27727.8281              TOTAL IN =         666.2681

          OUT:                                     OUT:
          ----                                     ----
             STORAGE =           0.0000               STORAGE =           0.0000
       CONSTANT HEAD =           0.0000         CONSTANT HEAD =           0.0000
               WELLS =           0.0000                 WELLS =           0.0000
     HEAD DEP BOUNDS =       27727.8281       HEAD DEP BOUNDS =         666.2613

           TOTAL OUT =       27727.8281             TOTAL OUT =         666.2613

            IN - OUT =           0.0000              IN - OUT =       6.7749E-03

 PERCENT DISCREPANCY =           0.00     PERCENT DISCREPANCY =           0.00






         TIME SUMMARY AT END OF TIME STEP   20 IN STRESS PERIOD    2
                    SECONDS     MINUTES      HOURS       DAYS        YEARS
                    -----------------------------------------------------------
   TIME STEP LENGTH  86400.      1440.0      24.000      1.0000     2.73785E-03
 STRESS PERIOD TIME 1.72800E+06  28800.      480.00      20.000     5.47570E-02
         TOTAL TIME 1.81440E+06  30240.      504.00      21.000     5.74949E-02
1

 SOLVING FOR HEAD 

 OUTPUT CONTROL FOR STRESS PERIOD    2   TIME STEP   21
    SAVE HEAD FOR ALL LAYERS
    SAVE DRAWDOWN FOR ALL LAYERS
    SAVE BUDGET
    PRINT HEAD FOR ALL LAYERS
    PRINT BUDGET
 UBDSV1 SAVING "         STORAGE" ON UNIT  53 AT TIME STEP 21, STRESS PERIOD   2
 UBDSV2 SAVING "   CONSTANT HEAD" ON UNIT  53 AT TIME STEP 21, STRESS PERIOD   2
 UBDSV1 SAVING "FLOW RIGHT FACE " ON UNIT  53 AT TIME STEP 21, STRESS PERIOD   2
 UBDSV1 SAVING "FLOW FRONT FACE " ON UNIT  53 AT TIME STEP 21, STRESS PERIOD   2
1
              HEAD IN LAYER   1 AT END OF TIME STEP  21 IN STRESS PERIOD    2
  ---------------------------------------------------------------------------

            1           2           3           4           5           6           7           8           9          10
 ........................................................................................................................
   1    9.992       9.082       8.147       7.168       6.128       5.020       3.843       2.605       1.321      1.3083E-02
   2    9.992       9.082       8.147       7.168       6.128       5.020       3.843       2.605       1.321      1.3083E-02
   3    9.992       9.082       8.147       7.168       6.128       5.020       3.843       2.605       1.321      1.3083E-02
   4    9.992       9.082       8.147       7.168       6.128       5.020       3.843       2.605       1.321      1.3083E-02
   5    9.992       9.082       8.147       7.168       6.128       5.020       3.843       2.605       1.321      1.3083E-02
   6    9.992       9.082       8.147       7.168       6.128       5.020       3.843       2.605       1.321      1.3083E-02
   7    9.992       9.082       8.147       7.168       6.128       5.020       3.843       2.605       1.321      1.3083E-02
   8    9.992       9.082       8.147       7.168       6.128       5.020       3.843       2.605       1.321      1.3083E-02
   9    9.992       9.082       8.147       7.168       6.128       5.020       3.843       2.605       1.321      1.3083E-02
  10    9.992       9.082       8.147       7.168       6.128       5.020       3.843       2.605       1.321      1.3083E-02

 HEAD WILL BE SAVED ON UNIT   51 AT END OF TIME STEP   21, STRESS PERIOD    2

 DRAWDOWN WILL BE SAVED ON UNIT   52 AT END OF TIME STEP   21, STRESS PERIOD    2
1
  VOLUMETRIC BUDGET FOR ENTIRE MODEL AT END OF TIME STEP   21, STRESS PERIOD   2
  ------------------------------------------------------------------------------

     CUMULATIVE VOLUMES      L**3       RATES FOR THIS TIME STEP      L**3/T
     ------------------                 ------------------------

           IN:                                      IN:
           ---                                      ---
             STORAGE =       23340.3340               STORAGE =         198.8372
       CONSTANT HEAD =           0.0000         CONSTANT HEAD =           0.0000
               WELLS =           0.0000                 WELLS =           0.0000
     HEAD DEP BOUNDS =        5041.6782       HEAD DEP BOUNDS =         455.3456

            TOTAL IN =       28382.0117              TOTAL IN =         654.1829

          OUT:                                     OUT:
          ----                                     ----
             STORAGE =           0.0000               STORAGE =           0.0000
       CONSTANT HEAD =           0.0000         CONSTANT HEAD =           0.0000
               WELLS =           0.0000                 WELLS =           0.0000
     HEAD DEP BOUNDS =       28381.9961       HEAD DEP BOUNDS =         654.1678

           TOTAL OUT =       28381.9961             TOTAL OUT =         654.1678

            IN - OUT =       1.5625E-02              IN - OUT =       1.5015E-02

 PERCENT DISCREPANCY =           0.00     PERCENT DISCREPANCY =           0.00






         TIME SUMMARY AT END OF TIME STEP   21 IN STRESS PERIOD    2
                    SECONDS     MINUTES      HOURS       DAYS        YEARS
                    -----------------------------------------------------------
   TIME STEP LENGTH  86400.      1440.0      24.000      1.0000     2.73785E-03
 STRESS PERIOD TIME 1.81440E+06  30240.      504.00      21.000     5.74949E-02
         TOTAL TIME 1.90080E+06  31680.      528.00      22.000     6.02327E-02
1

 SOLVING FOR HEAD 

 OUTPUT CONTROL FOR STRESS PERIOD    2   TIME STEP   22
    SAVE HEAD FOR ALL LAYERS
    SAVE DRAWDOWN FOR ALL LAYERS
    SAVE BUDGET
    PRINT HEAD FOR ALL LAYERS
    PRINT BUDGET
 UBDSV1 SAVING "         STORAGE" ON UNIT  53 AT TIME STEP 22, STRESS PERIOD   2
 UBDSV2 SAVING "   CONSTANT HEAD" ON UNIT  53 AT TIME STEP 22, STRESS PERIOD   2
 UBDSV1 SAVING "FLOW RIGHT FACE " ON UNIT  53 AT TIME STEP 22, STRESS PERIOD   2
 UBDSV1 SAVING "FLOW FRONT FACE " ON UNIT  53 AT TIME STEP 22, STRESS PERIOD   2
1
              HEAD IN LAYER   1 AT END OF TIME STEP  22 IN STRESS PERIOD    2
  ---------------------------------------------------------------------------

            1           2           3           4           5           6           7           8           9          10
 ........................................................................................................................
   1    9.992       9.060       8.107       7.114       6.067       4.959       3.789       2.564       1.299      1.2868E-02
   2    9.992       9.060       8.107       7.114       6.067       4.959       3.789       2.564       1.299      1.2868E-02
   3    9.992       9.060       8.107       7.114       6.067       4.959       3.789       2.564       1.299      1.2868E-02
   4    9.992       9.060       8.107       7.114       6.067       4.959       3.789       2.564       1.299      1.2868E-02
   5    9.992       9.060       8.107       7.114       6.067       4.959       3.789       2.564       1.299      1.2868E-02
   6    9.992       9.060       8.107       7.114       6.067       4.959       3.789       2.564       1.299      1.2868E-02
   7    9.992       9.060       8.107       7.114       6.067       4.959       3.789       2.564       1.299      1.2868E-02
   8    9.992       9.060       8.107       7.114       6.067       4.959       3.789       2.564       1.299      1.2868E-02
   9    9.992       9.060       8.107       7.114       6.067       4.959       3.789       2.564       1.299      1.2868E-02
  10    9.992       9.060       8.107       7.114       6.067       4.959       3.789       2.564       1.299      1.2868E-02

 HEAD WILL BE SAVED ON UNIT   51 AT END OF TIME STEP   22, STRESS PERIOD    2

 DRAWDOWN WILL BE SAVED ON UNIT   52 AT END OF TIME STEP   22, STRESS PERIOD    2
1
  VOLUMETRIC BUDGET FOR ENTIRE MODEL AT END OF TIME STEP   22, STRESS PERIOD   2
  ------------------------------------------------------------------------------

     CUMULATIVE VOLUMES      L**3       RATES FOR THIS TIME STEP      L**3/T
     ------------------                 ------------------------

           IN:                                      IN:
           ---                                      ---
             STORAGE =       23517.8438               STORAGE =         177.5104
       CONSTANT HEAD =           0.0000         CONSTANT HEAD =           0.0000
               WELLS =           0.0000                 WELLS =           0.0000
     HEAD DEP BOUNDS =        5507.5654       HEAD DEP BOUNDS =         465.8871

            TOTAL IN =       29025.4102              TOTAL IN =         643.3975

          OUT:                                     OUT:
          ----                                     ----
             STORAGE =           0.0000               STORAGE =           0.0000
       CONSTANT HEAD =           0.0000         CONSTANT HEAD =           0.0000
               WELLS =           0.0000                 WELLS =           0.0000
     HEAD DEP BOUNDS =       29025.3984       HEAD DEP BOUNDS =         643.4028

           TOTAL OUT =       29025.3984             TOTAL OUT =         643.4028

            IN - OUT =       1.1719E-02              IN - OUT =      -5.3101E-03

 PERCENT DISCREPANCY =           0.00     PERCENT DISCREPANCY =          -0.00






         TIME SUMMARY AT END OF TIME STEP   22 IN STRESS PERIOD    2
                    SECONDS     MINUTES      HOURS       DAYS        YEARS
                    -----------------------------------------------------------
   TIME STEP LENGTH  86400.      1440.0      24.000      1.0000     2.73785E-03
 STRESS PERIOD TIME 1.90080E+06  31680.      528.00      22.000     6.02327E-02
         TOTAL TIME 1.98720E+06  33120.      552.00      23.000     6.29706E-02
1

 SOLVING FOR HEAD 

 OUTPUT CONTROL FOR STRESS PERIOD    2   TIME STEP   23
    SAVE HEAD FOR ALL LAYERS
    SAVE DRAWDOWN FOR ALL LAYERS
    SAVE BUDGET
    PRINT HEAD FOR ALL LAYERS
    PRINT BUDGET
 UBDSV1 SAVING "         STORAGE" ON UNIT  53 AT TIME STEP 23, STRESS PERIOD   2
 UBDSV2 SAVING "   CONSTANT HEAD" ON UNIT  53 AT TIME STEP 23, STRESS PERIOD   2
 UBDSV1 SAVING "FLOW RIGHT FACE " ON UNIT  53 AT TIME STEP 23, STRESS PERIOD   2
 UBDSV1 SAVING "FLOW FRONT FACE " ON UNIT  53 AT TIME STEP 23, STRESS PERIOD   2
1
              HEAD IN LAYER   1 AT END OF TIME STEP  23 IN STRESS PERIOD    2
  ---------------------------------------------------------------------------

            1           2           3           4           5           6           7           8           9          10
 ........................................................................................................................
   1    9.992       9.041       8.071       7.066       6.012       4.904       3.740       2.528       1.280      1.2676E-02
   2    9.992       9.041       8.071       7.066       6.012       4.904       3.740       2.528       1.280      1.2676E-02
   3    9.992       9.041       8.071       7.066       6.012       4.904       3.740       2.528       1.280      1.2676E-02
   4    9.992       9.041       8.071       7.066       6.012       4.904       3.740       2.528       1.280      1.2676E-02
   5    9.992       9.041       8.071       7.066       6.012       4.904       3.740       2.528       1.280      1.2676E-02
   6    9.992       9.041       8.071       7.066       6.012       4.904       3.740       2.528       1.280      1.2676E-02
   7    9.992       9.041       8.071       7.066       6.012       4.904       3.740       2.528       1.280      1.2676E-02
   8    9.992       9.041       8.071       7.066       6.012       4.904       3.740       2.528       1.280      1.2676E-02
   9    9.992       9.041       8.071       7.066       6.012       4.904       3.740       2.528       1.280      1.2676E-02
  10    9.992       9.041       8.071       7.066       6.012       4.904       3.740       2.528       1.280      1.2676E-02

 HEAD WILL BE SAVED ON UNIT   51 AT END OF TIME STEP   23, STRESS PERIOD    2

 DRAWDOWN WILL BE SAVED ON UNIT   52 AT END OF TIME STEP   23, STRESS PERIOD    2
1
  VOLUMETRIC BUDGET FOR ENTIRE MODEL AT END OF TIME STEP   23, STRESS PERIOD   2
  ------------------------------------------------------------------------------

     CUMULATIVE VOLUMES      L**3       RATES FOR THIS TIME STEP      L**3/T
     ------------------                 ------------------------

           IN:                                      IN:
           ---                                      ---
             STORAGE =       23676.3164               STORAGE =         158.4720
       CONSTANT HEAD =           0.0000         CONSTANT HEAD =           0.0000
               WELLS =           0.0000                 WELLS =           0.0000
     HEAD DEP BOUNDS =        5982.8926       HEAD DEP BOUNDS =         475.3274

            TOTAL IN =       29659.2090              TOTAL IN =         633.7993

          OUT:                                     OUT:
          ----                                     ----
             STORAGE =           0.0000               STORAGE =           0.0000
       CONSTANT HEAD =           0.0000         CONSTANT HEAD =           0.0000
               WELLS =           0.0000                 WELLS =           0.0000
     HEAD DEP BOUNDS =       29659.2129       HEAD DEP BOUNDS =         633.8139

           TOTAL OUT =       29659.2129             TOTAL OUT =         633.8139

            IN - OUT =      -3.9062E-03              IN - OUT =      -1.4587E-02

 PERCENT DISCREPANCY =          -0.00     PERCENT DISCREPANCY =          -0.00






         TIME SUMMARY AT END OF TIME STEP   23 IN STRESS PERIOD    2
                    SECONDS     MINUTES      HOURS       DAYS        YEARS
                    -----------------------------------------------------------
   TIME STEP LENGTH  86400.      1440.0      24.000      1.0000     2.73785E-03
 STRESS PERIOD TIME 1.98720E+06  33120.      552.00      23.000     6.29706E-02
         TOTAL TIME 2.07360E+06  34560.      576.00      24.000     6.57084E-02
1

 SOLVING FOR HEAD 

 OUTPUT CONTROL FOR STRESS PERIOD    2   TIME STEP   24
    SAVE HEAD FOR ALL LAYERS
    SAVE DRAWDOWN FOR ALL LAYERS
    SAVE BUDGET
    PRINT HEAD FOR ALL LAYERS
    PRINT BUDGET
 UBDSV1 SAVING "         STORAGE" ON UNIT  53 AT TIME STEP 24, STRESS PERIOD   2
 UBDSV2 SAVING "   CONSTANT HEAD" ON UNIT  53 AT TIME STEP 24, STRESS PERIOD   2
 UBDSV1 SAVING "FLOW RIGHT FACE " ON UNIT  53 AT TIME STEP 24, STRESS PERIOD   2
 UBDSV1 SAVING "FLOW FRONT FACE " ON UNIT  53 AT TIME STEP 24, STRESS PERIOD   2
1
              HEAD IN LAYER   1 AT END OF TIME STEP  24 IN STRESS PERIOD    2
  ---------------------------------------------------------------------------

            1           2           3           4           5           6           7           8           9          10
 ........................................................................................................................
   1    9.992       9.024       8.039       7.023       5.963       4.855       3.697       2.496       1.263      1.2505E-02
   2    9.992       9.024       8.039       7.023       5.963       4.855       3.697       2.496       1.263      1.2505E-02
   3    9.992       9.024       8.039       7.023       5.963       4.855       3.697       2.496       1.263      1.2505E-02
   4    9.992       9.024       8.039       7.023       5.963       4.855       3.697       2.496       1.263      1.2505E-02
   5    9.992       9.024       8.039       7.023       5.963       4.855       3.697       2.496       1.263      1.2505E-02
   6    9.992       9.024       8.039       7.023       5.963       4.855       3.697       2.496       1.263      1.2505E-02
   7    9.992       9.024       8.039       7.023       5.963       4.855       3.697       2.496       1.263      1.2505E-02
   8    9.992       9.024       8.039       7.023       5.963       4.855       3.697       2.496       1.263      1.2505E-02
   9    9.992       9.024       8.039       7.023       5.963       4.855       3.697       2.496       1.263      1.2505E-02
  10    9.992       9.024       8.039       7.023       5.963       4.855       3.697       2.496       1.263      1.2505E-02

 HEAD WILL BE SAVED ON UNIT   51 AT END OF TIME STEP   24, STRESS PERIOD    2

 DRAWDOWN WILL BE SAVED ON UNIT   52 AT END OF TIME STEP   24, STRESS PERIOD    2
1
  VOLUMETRIC BUDGET FOR ENTIRE MODEL AT END OF TIME STEP   24, STRESS PERIOD   2
  ------------------------------------------------------------------------------

     CUMULATIVE VOLUMES      L**3       RATES FOR THIS TIME STEP      L**3/T
     ------------------                 ------------------------

           IN:                                      IN:
           ---                                      ---
             STORAGE =       23817.7910               STORAGE =         141.4753
       CONSTANT HEAD =           0.0000         CONSTANT HEAD =           0.0000
               WELLS =           0.0000                 WELLS =           0.0000
     HEAD DEP BOUNDS =        6466.6704       HEAD DEP BOUNDS =         483.7778

            TOTAL IN =       30284.4609              TOTAL IN =         625.2531

          OUT:                                     OUT:
          ----                                     ----
             STORAGE =           0.0000               STORAGE =           0.0000
       CONSTANT HEAD =           0.0000         CONSTANT HEAD =           0.0000
               WELLS =           0.0000                 WELLS =           0.0000
     HEAD DEP BOUNDS =       30284.4805       HEAD DEP BOUNDS =         625.2681

           TOTAL OUT =       30284.4805             TOTAL OUT =         625.2681

            IN - OUT =      -1.9531E-02              IN - OUT =      -1.5015E-02

 PERCENT DISCREPANCY =          -0.00     PERCENT DISCREPANCY =          -0.00






         TIME SUMMARY AT END OF TIME STEP   24 IN STRESS PERIOD    2
                    SECONDS     MINUTES      HOURS       DAYS        YEARS
                    -----------------------------------------------------------
   TIME STEP LENGTH  86400.      1440.0      24.000      1.0000     2.73785E-03
 STRESS PERIOD TIME 2.07360E+06  34560.      576.00      24.000     6.57084E-02
         TOTAL TIME 2.16000E+06  36000.      600.00      25.000     6.84463E-02
1

 SOLVING FOR HEAD 

 OUTPUT CONTROL FOR STRESS PERIOD    2   TIME STEP   25
    SAVE HEAD FOR ALL LAYERS
    SAVE DRAWDOWN FOR ALL LAYERS
    SAVE BUDGET
    PRINT HEAD FOR ALL LAYERS
    PRINT BUDGET
 UBDSV1 SAVING "         STORAGE" ON UNIT  53 AT TIME STEP 25, STRESS PERIOD   2
 UBDSV2 SAVING "   CONSTANT HEAD" ON UNIT  53 AT TIME STEP 25, STRESS PERIOD   2
 UBDSV1 SAVING "FLOW RIGHT FACE " ON UNIT  53 AT TIME STEP 25, STRESS PERIOD   2
 UBDSV1 SAVING "FLOW FRONT FACE " ON UNIT  53 AT TIME STEP 25, STRESS PERIOD   2
1
              HEAD IN LAYER   1 AT END OF TIME STEP  25 IN STRESS PERIOD    2
  ---------------------------------------------------------------------------

            1           2           3           4           5           6           7           8           9          10
 ........................................................................................................................
   1    9.992       9.009       8.011       6.984       5.919       4.811       3.658       2.467       1.247      1.2353E-02
   2    9.992       9.009       8.011       6.984       5.919       4.811       3.658       2.467       1.247      1.2353E-02
   3    9.992       9.009       8.011       6.984       5.919       4.811       3.658       2.467       1.247      1.2353E-02
   4    9.992       9.009       8.011       6.984       5.919       4.811       3.658       2.467       1.247      1.2353E-02
   5    9.992       9.009       8.011       6.984       5.919       4.811       3.658       2.467       1.247      1.2353E-02
   6    9.992       9.009       8.011       6.984       5.919       4.811       3.658       2.467       1.247      1.2353E-02
   7    9.992       9.009       8.011       6.984       5.919       4.811       3.658       2.467       1.247      1.2353E-02
   8    9.992       9.009       8.011       6.984       5.919       4.811       3.658       2.467       1.247      1.2353E-02
   9    9.992       9.009       8.011       6.984       5.919       4.811       3.658       2.467       1.247      1.2353E-02
  10    9.992       9.009       8.011       6.984       5.919       4.811       3.658       2.467       1.247      1.2353E-02

 HEAD WILL BE SAVED ON UNIT   51 AT END OF TIME STEP   25, STRESS PERIOD    2

 DRAWDOWN WILL BE SAVED ON UNIT   52 AT END OF TIME STEP   25, STRESS PERIOD    2
1
  VOLUMETRIC BUDGET FOR ENTIRE MODEL AT END OF TIME STEP   25, STRESS PERIOD   2
  ------------------------------------------------------------------------------

     CUMULATIVE VOLUMES      L**3       RATES FOR THIS TIME STEP      L**3/T
     ------------------                 ------------------------

           IN:                                      IN:
           ---                                      ---
             STORAGE =       23944.0918               STORAGE =         126.3002
       CONSTANT HEAD =           0.0000         CONSTANT HEAD =           0.0000
               WELLS =           0.0000                 WELLS =           0.0000
     HEAD DEP BOUNDS =        6958.0103       HEAD DEP BOUNDS =         491.3397

            TOTAL IN =       30902.1016              TOTAL IN =         617.6399

          OUT:                                     OUT:
          ----                                     ----
             STORAGE =           0.0000               STORAGE =           0.0000
       CONSTANT HEAD =           0.0000         CONSTANT HEAD =           0.0000
               WELLS =           0.0000                 WELLS =           0.0000
     HEAD DEP BOUNDS =       30902.1289       HEAD DEP BOUNDS =         617.6487

           TOTAL OUT =       30902.1289             TOTAL OUT =         617.6487

            IN - OUT =      -2.7344E-02              IN - OUT =      -8.7891E-03

 PERCENT DISCREPANCY =          -0.00     PERCENT DISCREPANCY =          -0.00






         TIME SUMMARY AT END OF TIME STEP   25 IN STRESS PERIOD    2
                    SECONDS     MINUTES      HOURS       DAYS        YEARS
                    -----------------------------------------------------------
   TIME STEP LENGTH  86400.      1440.0      24.000      1.0000     2.73785E-03
 STRESS PERIOD TIME 2.16000E+06  36000.      600.00      25.000     6.84463E-02
         TOTAL TIME 2.24640E+06  37440.      624.00      26.000     7.11841E-02
1

 SOLVING FOR HEAD 

 OUTPUT CONTROL FOR STRESS PERIOD    2   TIME STEP   26
    SAVE HEAD FOR ALL LAYERS
    SAVE DRAWDOWN FOR ALL LAYERS
    SAVE BUDGET
    PRINT HEAD FOR ALL LAYERS
    PRINT BUDGET
 UBDSV1 SAVING "         STORAGE" ON UNIT  53 AT TIME STEP 26, STRESS PERIOD   2
 UBDSV2 SAVING "   CONSTANT HEAD" ON UNIT  53 AT TIME STEP 26, STRESS PERIOD   2
 UBDSV1 SAVING "FLOW RIGHT FACE " ON UNIT  53 AT TIME STEP 26, STRESS PERIOD   2
 UBDSV1 SAVING "FLOW FRONT FACE " ON UNIT  53 AT TIME STEP 26, STRESS PERIOD   2
1
              HEAD IN LAYER   1 AT END OF TIME STEP  26 IN STRESS PERIOD    2
  ---------------------------------------------------------------------------

            1           2           3           4           5           6           7           8           9          10
 ........................................................................................................................
   1    9.992       8.995       7.985       6.950       5.880       4.772       3.624       2.442       1.234      1.2217E-02
   2    9.992       8.995       7.985       6.950       5.880       4.772       3.624       2.442       1.234      1.2217E-02
   3    9.992       8.995       7.985       6.950       5.880       4.772       3.624       2.442       1.234      1.2217E-02
   4    9.992       8.995       7.985       6.950       5.880       4.772       3.624       2.442       1.234      1.2217E-02
   5    9.992       8.995       7.985       6.950       5.880       4.772       3.624       2.442       1.234      1.2217E-02
   6    9.992       8.995       7.985       6.950       5.880       4.772       3.624       2.442       1.234      1.2217E-02
   7    9.992       8.995       7.985       6.950       5.880       4.772       3.624       2.442       1.234      1.2217E-02
   8    9.992       8.995       7.985       6.950       5.880       4.772       3.624       2.442       1.234      1.2217E-02
   9    9.992       8.995       7.985       6.950       5.880       4.772       3.624       2.442       1.234      1.2217E-02
  10    9.992       8.995       7.985       6.950       5.880       4.772       3.624       2.442       1.234      1.2217E-02

 HEAD WILL BE SAVED ON UNIT   51 AT END OF TIME STEP   26, STRESS PERIOD    2

 DRAWDOWN WILL BE SAVED ON UNIT   52 AT END OF TIME STEP   26, STRESS PERIOD    2
1
  VOLUMETRIC BUDGET FOR ENTIRE MODEL AT END OF TIME STEP   26, STRESS PERIOD   2
  ------------------------------------------------------------------------------

     CUMULATIVE VOLUMES      L**3       RATES FOR THIS TIME STEP      L**3/T
     ------------------                 ------------------------

           IN:                                      IN:
           ---                                      ---
             STORAGE =       24056.8477               STORAGE =         112.7551
       CONSTANT HEAD =           0.0000         CONSTANT HEAD =           0.0000
               WELLS =           0.0000                 WELLS =           0.0000
     HEAD DEP BOUNDS =        7456.1157       HEAD DEP BOUNDS =         498.1056

            TOTAL IN =       31512.9629              TOTAL IN =         610.8607

          OUT:                                     OUT:
          ----                                     ----
             STORAGE =           0.0000               STORAGE =           0.0000
       CONSTANT HEAD =           0.0000         CONSTANT HEAD =           0.0000
               WELLS =           0.0000                 WELLS =           0.0000
     HEAD DEP BOUNDS =       31512.9824       HEAD DEP BOUNDS =         610.8533

           TOTAL OUT =       31512.9824             TOTAL OUT =         610.8533

            IN - OUT =      -1.9531E-02              IN - OUT =       7.3853E-03

 PERCENT DISCREPANCY =          -0.00     PERCENT DISCREPANCY =           0.00






         TIME SUMMARY AT END OF TIME STEP   26 IN STRESS PERIOD    2
                    SECONDS     MINUTES      HOURS       DAYS        YEARS
                    -----------------------------------------------------------
   TIME STEP LENGTH  86400.      1440.0      24.000      1.0000     2.73785E-03
 STRESS PERIOD TIME 2.24640E+06  37440.      624.00      26.000     7.11841E-02
         TOTAL TIME 2.33280E+06  38880.      648.00      27.000     7.39220E-02
1

 SOLVING FOR HEAD 

 OUTPUT CONTROL FOR STRESS PERIOD    2   TIME STEP   27
    SAVE HEAD FOR ALL LAYERS
    SAVE DRAWDOWN FOR ALL LAYERS
    SAVE BUDGET
    PRINT HEAD FOR ALL LAYERS
    PRINT BUDGET
 UBDSV1 SAVING "         STORAGE" ON UNIT  53 AT TIME STEP 27, STRESS PERIOD   2
 UBDSV2 SAVING "   CONSTANT HEAD" ON UNIT  53 AT TIME STEP 27, STRESS PERIOD   2
 UBDSV1 SAVING "FLOW RIGHT FACE " ON UNIT  53 AT TIME STEP 27, STRESS PERIOD   2
 UBDSV1 SAVING "FLOW FRONT FACE " ON UNIT  53 AT TIME STEP 27, STRESS PERIOD   2
1
              HEAD IN LAYER   1 AT END OF TIME STEP  27 IN STRESS PERIOD    2
  ---------------------------------------------------------------------------

            1           2           3           4           5           6           7           8           9          10
 ........................................................................................................................
   1    9.992       8.983       7.963       6.919       5.846       4.737       3.593       2.419       1.222      1.2096E-02
   2    9.992       8.983       7.963       6.919       5.846       4.737       3.593       2.419       1.222      1.2096E-02
   3    9.992       8.983       7.963       6.919       5.846       4.737       3.593       2.419       1.222      1.2096E-02
   4    9.992       8.983       7.963       6.919       5.846       4.737       3.593       2.419       1.222      1.2096E-02
   5    9.992       8.983       7.963       6.919       5.846       4.737       3.593       2.419       1.222      1.2096E-02
   6    9.992       8.983       7.963       6.919       5.846       4.737       3.593       2.419       1.222      1.2096E-02
   7    9.992       8.983       7.963       6.919       5.846       4.737       3.593       2.419       1.222      1.2096E-02
   8    9.992       8.983       7.963       6.919       5.846       4.737       3.593       2.419       1.222      1.2096E-02
   9    9.992       8.983       7.963       6.919       5.846       4.737       3.593       2.419       1.222      1.2096E-02
  10    9.992       8.983       7.963       6.919       5.846       4.737       3.593       2.419       1.222      1.2096E-02

 HEAD WILL BE SAVED ON UNIT   51 AT END OF TIME STEP   27, STRESS PERIOD    2

 DRAWDOWN WILL BE SAVED ON UNIT   52 AT END OF TIME STEP   27, STRESS PERIOD    2
1
  VOLUMETRIC BUDGET FOR ENTIRE MODEL AT END OF TIME STEP   27, STRESS PERIOD   2
  ------------------------------------------------------------------------------

     CUMULATIVE VOLUMES      L**3       RATES FOR THIS TIME STEP      L**3/T
     ------------------                 ------------------------

           IN:                                      IN:
           ---                                      ---
             STORAGE =       24157.5078               STORAGE =         100.6606
       CONSTANT HEAD =           0.0000         CONSTANT HEAD =           0.0000
               WELLS =           0.0000                 WELLS =           0.0000
     HEAD DEP BOUNDS =        7960.2358       HEAD DEP BOUNDS =         504.1201

            TOTAL IN =       32117.7441              TOTAL IN =         604.7807

          OUT:                                     OUT:
          ----                                     ----
             STORAGE =           0.0000               STORAGE =           0.0000
       CONSTANT HEAD =           0.0000         CONSTANT HEAD =           0.0000
               WELLS =           0.0000                 WELLS =           0.0000
     HEAD DEP BOUNDS =       32117.7734       HEAD DEP BOUNDS =         604.7914

           TOTAL OUT =       32117.7734             TOTAL OUT =         604.7914

            IN - OUT =      -2.9297E-02              IN - OUT =      -1.0681E-02

 PERCENT DISCREPANCY =          -0.00     PERCENT DISCREPANCY =          -0.00






         TIME SUMMARY AT END OF TIME STEP   27 IN STRESS PERIOD    2
                    SECONDS     MINUTES      HOURS       DAYS        YEARS
                    -----------------------------------------------------------
   TIME STEP LENGTH  86400.      1440.0      24.000      1.0000     2.73785E-03
 STRESS PERIOD TIME 2.33280E+06  38880.      648.00      27.000     7.39220E-02
         TOTAL TIME 2.41920E+06  40320.      672.00      28.000     7.66598E-02
1

 SOLVING FOR HEAD 

 OUTPUT CONTROL FOR STRESS PERIOD    2   TIME STEP   28
    SAVE HEAD FOR ALL LAYERS
    SAVE DRAWDOWN FOR ALL LAYERS
    SAVE BUDGET
    PRINT HEAD FOR ALL LAYERS
    PRINT BUDGET
 UBDSV1 SAVING "         STORAGE" ON UNIT  53 AT TIME STEP 28, STRESS PERIOD   2
 UBDSV2 SAVING "   CONSTANT HEAD" ON UNIT  53 AT TIME STEP 28, STRESS PERIOD   2
 UBDSV1 SAVING "FLOW RIGHT FACE " ON UNIT  53 AT TIME STEP 28, STRESS PERIOD   2
 UBDSV1 SAVING "FLOW FRONT FACE " ON UNIT  53 AT TIME STEP 28, STRESS PERIOD   2
1
              HEAD IN LAYER   1 AT END OF TIME STEP  28 IN STRESS PERIOD    2
  ---------------------------------------------------------------------------

            1           2           3           4           5           6           7           8           9          10
 ........................................................................................................................
   1    9.992       8.972       7.942       6.892       5.814       4.706       3.566       2.398       1.211      1.1988E-02
   2    9.992       8.972       7.942       6.892       5.814       4.706       3.566       2.398       1.211      1.1988E-02
   3    9.992       8.972       7.942       6.892       5.814       4.706       3.566       2.398       1.211      1.1988E-02
   4    9.992       8.972       7.942       6.892       5.814       4.706       3.566       2.398       1.211      1.1988E-02
   5    9.992       8.972       7.942       6.892       5.814       4.706       3.566       2.398       1.211      1.1988E-02
   6    9.992       8.972       7.942       6.892       5.814       4.706       3.566       2.398       1.211      1.1988E-02
   7    9.992       8.972       7.942       6.892       5.814       4.706       3.566       2.398       1.211      1.1988E-02
   8    9.992       8.972       7.942       6.892       5.814       4.706       3.566       2.398       1.211      1.1988E-02
   9    9.992       8.972       7.942       6.892       5.814       4.706       3.566       2.398       1.211      1.1988E-02
  10    9.992       8.972       7.942       6.892       5.814       4.706       3.566       2.398       1.211      1.1988E-02

 HEAD WILL BE SAVED ON UNIT   51 AT END OF TIME STEP   28, STRESS PERIOD    2

 DRAWDOWN WILL BE SAVED ON UNIT   52 AT END OF TIME STEP   28, STRESS PERIOD    2
1
  VOLUMETRIC BUDGET FOR ENTIRE MODEL AT END OF TIME STEP   28, STRESS PERIOD   2
  ------------------------------------------------------------------------------

     CUMULATIVE VOLUMES      L**3       RATES FOR THIS TIME STEP      L**3/T
     ------------------                 ------------------------

           IN:                                      IN:
           ---                                      ---
             STORAGE =       24247.3730               STORAGE =          89.8653
       CONSTANT HEAD =           0.0000         CONSTANT HEAD =           0.0000
               WELLS =           0.0000                 WELLS =           0.0000
     HEAD DEP BOUNDS =        8469.7715       HEAD DEP BOUNDS =         509.5352

            TOTAL IN =       32717.1445              TOTAL IN =         599.4005

          OUT:                                     OUT:
          ----                                     ----
             STORAGE =           0.0000               STORAGE =           0.0000
       CONSTANT HEAD =           0.0000         CONSTANT HEAD =           0.0000
               WELLS =           0.0000                 WELLS =           0.0000
     HEAD DEP BOUNDS =       32717.1562       HEAD DEP BOUNDS =         599.3828

           TOTAL OUT =       32717.1562             TOTAL OUT =         599.3828

            IN - OUT =      -1.1719E-02              IN - OUT =       1.7700E-02

 PERCENT DISCREPANCY =          -0.00     PERCENT DISCREPANCY =           0.00






         TIME SUMMARY AT END OF TIME STEP   28 IN STRESS PERIOD    2
                    SECONDS     MINUTES      HOURS       DAYS        YEARS
                    -----------------------------------------------------------
   TIME STEP LENGTH  86400.      1440.0      24.000      1.0000     2.73785E-03
 STRESS PERIOD TIME 2.41920E+06  40320.      672.00      28.000     7.66598E-02
         TOTAL TIME 2.50560E+06  41760.      696.00      29.000     7.93977E-02
1

 SOLVING FOR HEAD 

 OUTPUT CONTROL FOR STRESS PERIOD    2   TIME STEP   29
    SAVE HEAD FOR ALL LAYERS
    SAVE DRAWDOWN FOR ALL LAYERS
    SAVE BUDGET
    PRINT HEAD FOR ALL LAYERS
    PRINT BUDGET
 UBDSV1 SAVING "         STORAGE" ON UNIT  53 AT TIME STEP 29, STRESS PERIOD   2
 UBDSV2 SAVING "   CONSTANT HEAD" ON UNIT  53 AT TIME STEP 29, STRESS PERIOD   2
 UBDSV1 SAVING "FLOW RIGHT FACE " ON UNIT  53 AT TIME STEP 29, STRESS PERIOD   2
 UBDSV1 SAVING "FLOW FRONT FACE " ON UNIT  53 AT TIME STEP 29, STRESS PERIOD   2
1
              HEAD IN LAYER   1 AT END OF TIME STEP  29 IN STRESS PERIOD    2
  ---------------------------------------------------------------------------

            1           2           3           4           5           6           7           8           9          10
 ........................................................................................................................
   1    9.991       8.963       7.924       6.868       5.787       4.678       3.541       2.380       1.201      1.1891E-02
   2    9.991       8.963       7.924       6.868       5.787       4.678       3.541       2.380       1.201      1.1891E-02
   3    9.991       8.963       7.924       6.868       5.787       4.678       3.541       2.380       1.201      1.1891E-02
   4    9.991       8.963       7.924       6.868       5.787       4.678       3.541       2.380       1.201      1.1891E-02
   5    9.991       8.963       7.924       6.868       5.787       4.678       3.541       2.380       1.201      1.1891E-02
   6    9.991       8.963       7.924       6.868       5.787       4.678       3.541       2.380       1.201      1.1891E-02
   7    9.991       8.963       7.924       6.868       5.787       4.678       3.541       2.380       1.201      1.1891E-02
   8    9.991       8.963       7.924       6.868       5.787       4.678       3.541       2.380       1.201      1.1891E-02
   9    9.991       8.963       7.924       6.868       5.787       4.678       3.541       2.380       1.201      1.1891E-02
  10    9.991       8.963       7.924       6.868       5.787       4.678       3.541       2.380       1.201      1.1891E-02

 HEAD WILL BE SAVED ON UNIT   51 AT END OF TIME STEP   29, STRESS PERIOD    2

 DRAWDOWN WILL BE SAVED ON UNIT   52 AT END OF TIME STEP   29, STRESS PERIOD    2
1
  VOLUMETRIC BUDGET FOR ENTIRE MODEL AT END OF TIME STEP   29, STRESS PERIOD   2
  ------------------------------------------------------------------------------

     CUMULATIVE VOLUMES      L**3       RATES FOR THIS TIME STEP      L**3/T
     ------------------                 ------------------------

           IN:                                      IN:
           ---                                      ---
             STORAGE =       24327.5996               STORAGE =          80.2260
       CONSTANT HEAD =           0.0000         CONSTANT HEAD =           0.0000
               WELLS =           0.0000                 WELLS =           0.0000
     HEAD DEP BOUNDS =        8984.1133       HEAD DEP BOUNDS =         514.3414

            TOTAL IN =       33311.7109              TOTAL IN =         594.5674

          OUT:                                     OUT:
          ----                                     ----
             STORAGE =           0.0000               STORAGE =           0.0000
       CONSTANT HEAD =           0.0000         CONSTANT HEAD =           0.0000
               WELLS =           0.0000                 WELLS =           0.0000
     HEAD DEP BOUNDS =       33311.7109       HEAD DEP BOUNDS =         594.5564

           TOTAL OUT =       33311.7109             TOTAL OUT =         594.5564

            IN - OUT =           0.0000              IN - OUT =       1.1047E-02

 PERCENT DISCREPANCY =           0.00     PERCENT DISCREPANCY =           0.00






         TIME SUMMARY AT END OF TIME STEP   29 IN STRESS PERIOD    2
                    SECONDS     MINUTES      HOURS       DAYS        YEARS
                    -----------------------------------------------------------
   TIME STEP LENGTH  86400.      1440.0      24.000      1.0000     2.73785E-03
 STRESS PERIOD TIME 2.50560E+06  41760.      696.00      29.000     7.93977E-02
         TOTAL TIME 2.59200E+06  43200.      720.00      30.000     8.21355E-02
1

 SOLVING FOR HEAD 

 OUTPUT CONTROL FOR STRESS PERIOD    2   TIME STEP   30
    SAVE HEAD FOR ALL LAYERS
    SAVE DRAWDOWN FOR ALL LAYERS
    SAVE BUDGET
    PRINT HEAD FOR ALL LAYERS
    PRINT BUDGET
 UBDSV1 SAVING "         STORAGE" ON UNIT  53 AT TIME STEP 30, STRESS PERIOD   2
 UBDSV2 SAVING "   CONSTANT HEAD" ON UNIT  53 AT TIME STEP 30, STRESS PERIOD   2
 UBDSV1 SAVING "FLOW RIGHT FACE " ON UNIT  53 AT TIME STEP 30, STRESS PERIOD   2
 UBDSV1 SAVING "FLOW FRONT FACE " ON UNIT  53 AT TIME STEP 30, STRESS PERIOD   2
1
              HEAD IN LAYER   1 AT END OF TIME STEP  30 IN STRESS PERIOD    2
  ---------------------------------------------------------------------------

            1           2           3           4           5           6           7           8           9          10
 ........................................................................................................................
   1    9.991       8.954       7.908       6.846       5.762       4.653       3.519       2.364       1.192      1.1805E-02
   2    9.991       8.954       7.908       6.846       5.762       4.653       3.519       2.364       1.192      1.1805E-02
   3    9.991       8.954       7.908       6.846       5.762       4.653       3.519       2.364       1.192      1.1805E-02
   4    9.991       8.954       7.908       6.846       5.762       4.653       3.519       2.364       1.192      1.1805E-02
   5    9.991       8.954       7.908       6.846       5.762       4.653       3.519       2.364       1.192      1.1805E-02
   6    9.991       8.954       7.908       6.846       5.762       4.653       3.519       2.364       1.192      1.1805E-02
   7    9.991       8.954       7.908       6.846       5.762       4.653       3.519       2.364       1.192      1.1805E-02
   8    9.991       8.954       7.908       6.846       5.762       4.653       3.519       2.364       1.192      1.1805E-02
   9    9.991       8.954       7.908       6.846       5.762       4.653       3.519       2.364       1.192      1.1805E-02
  10    9.991       8.954       7.908       6.846       5.762       4.653       3.519       2.364       1.192      1.1805E-02

 HEAD WILL BE SAVED ON UNIT   51 AT END OF TIME STEP   30, STRESS PERIOD    2

 DRAWDOWN WILL BE SAVED ON UNIT   52 AT END OF TIME STEP   30, STRESS PERIOD    2
1
  VOLUMETRIC BUDGET FOR ENTIRE MODEL AT END OF TIME STEP   30, STRESS PERIOD   2
  ------------------------------------------------------------------------------

     CUMULATIVE VOLUMES      L**3       RATES FOR THIS TIME STEP      L**3/T
     ------------------                 ------------------------

           IN:                                      IN:
           ---                                      ---
             STORAGE =       24399.2207               STORAGE =          71.6219
       CONSTANT HEAD =           0.0000         CONSTANT HEAD =           0.0000
               WELLS =           0.0000                 WELLS =           0.0000
     HEAD DEP BOUNDS =        9502.7510       HEAD DEP BOUNDS =         518.6376

            TOTAL IN =       33901.9727              TOTAL IN =         590.2595

          OUT:                                     OUT:
          ----                                     ----
             STORAGE =           0.0000               STORAGE =           0.0000
       CONSTANT HEAD =           0.0000         CONSTANT HEAD =           0.0000
               WELLS =           0.0000                 WELLS =           0.0000
     HEAD DEP BOUNDS =       33901.9609       HEAD DEP BOUNDS =         590.2491

           TOTAL OUT =       33901.9609             TOTAL OUT =         590.2491

            IN - OUT =       1.1719E-02              IN - OUT =       1.0437E-02

 PERCENT DISCREPANCY =           0.00     PERCENT DISCREPANCY =           0.00






         TIME SUMMARY AT END OF TIME STEP   30 IN STRESS PERIOD    2
                    SECONDS     MINUTES      HOURS       DAYS        YEARS
                    -----------------------------------------------------------
   TIME STEP LENGTH  86400.      1440.0      24.000      1.0000     2.73785E-03
 STRESS PERIOD TIME 2.59200E+06  43200.      720.00      30.000     8.21355E-02
         TOTAL TIME 2.67840E+06  44640.      744.00      31.000     8.48734E-02
1

 SOLVING FOR HEAD 

 OUTPUT CONTROL FOR STRESS PERIOD    2   TIME STEP   31
    SAVE HEAD FOR ALL LAYERS
    SAVE DRAWDOWN FOR ALL LAYERS
    SAVE BUDGET
    PRINT HEAD FOR ALL LAYERS
    PRINT BUDGET
 UBDSV1 SAVING "         STORAGE" ON UNIT  53 AT TIME STEP 31, STRESS PERIOD   2
 UBDSV2 SAVING "   CONSTANT HEAD" ON UNIT  53 AT TIME STEP 31, STRESS PERIOD   2
 UBDSV1 SAVING "FLOW RIGHT FACE " ON UNIT  53 AT TIME STEP 31, STRESS PERIOD   2
 UBDSV1 SAVING "FLOW FRONT FACE " ON UNIT  53 AT TIME STEP 31, STRESS PERIOD   2
1
              HEAD IN LAYER   1 AT END OF TIME STEP  31 IN STRESS PERIOD    2
  ---------------------------------------------------------------------------

            1           2           3           4           5           6           7           8           9          10
 ........................................................................................................................
   1    9.991       8.946       7.894       6.826       5.740       4.631       3.500       2.349       1.184      1.1728E-02
   2    9.991       8.946       7.894       6.826       5.740       4.631       3.500       2.349       1.184      1.1728E-02
   3    9.991       8.946       7.894       6.826       5.740       4.631       3.500       2.349       1.184      1.1728E-02
   4    9.991       8.946       7.894       6.826       5.740       4.631       3.500       2.349       1.184      1.1728E-02
   5    9.991       8.946       7.894       6.826       5.740       4.631       3.500       2.349       1.184      1.1728E-02
   6    9.991       8.946       7.894       6.826       5.740       4.631       3.500       2.349       1.184      1.1728E-02
   7    9.991       8.946       7.894       6.826       5.740       4.631       3.500       2.349       1.184      1.1728E-02
   8    9.991       8.946       7.894       6.826       5.740       4.631       3.500       2.349       1.184      1.1728E-02
   9    9.991       8.946       7.894       6.826       5.740       4.631       3.500       2.349       1.184      1.1728E-02
  10    9.991       8.946       7.894       6.826       5.740       4.631       3.500       2.349       1.184      1.1728E-02

 HEAD WILL BE SAVED ON UNIT   51 AT END OF TIME STEP   31, STRESS PERIOD    2

 DRAWDOWN WILL BE SAVED ON UNIT   52 AT END OF TIME STEP   31, STRESS PERIOD    2
1
  VOLUMETRIC BUDGET FOR ENTIRE MODEL AT END OF TIME STEP   31, STRESS PERIOD   2
  ------------------------------------------------------------------------------

     CUMULATIVE VOLUMES      L**3       RATES FOR THIS TIME STEP      L**3/T
     ------------------                 ------------------------

           IN:                                      IN:
           ---                                      ---
             STORAGE =       24463.1602               STORAGE =          63.9402
       CONSTANT HEAD =           0.0000         CONSTANT HEAD =           0.0000
               WELLS =           0.0000                 WELLS =           0.0000
     HEAD DEP BOUNDS =       10025.2295       HEAD DEP BOUNDS =         522.4783

            TOTAL IN =       34488.3906              TOTAL IN =         586.4185

          OUT:                                     OUT:
          ----                                     ----
             STORAGE =           0.0000               STORAGE =           0.0000
       CONSTANT HEAD =           0.0000         CONSTANT HEAD =           0.0000
               WELLS =           0.0000                 WELLS =           0.0000
     HEAD DEP BOUNDS =       34488.3672       HEAD DEP BOUNDS =         586.4048

           TOTAL OUT =       34488.3672             TOTAL OUT =         586.4048

            IN - OUT =       2.3438E-02              IN - OUT =       1.3672E-02

 PERCENT DISCREPANCY =           0.00     PERCENT DISCREPANCY =           0.00






         TIME SUMMARY AT END OF TIME STEP   31 IN STRESS PERIOD    2
                    SECONDS     MINUTES      HOURS       DAYS        YEARS
                    -----------------------------------------------------------
   TIME STEP LENGTH  86400.      1440.0      24.000      1.0000     2.73785E-03
 STRESS PERIOD TIME 2.67840E+06  44640.      744.00      31.000     8.48734E-02
         TOTAL TIME 2.76480E+06  46080.      768.00      32.000     8.76112E-02
1

 SOLVING FOR HEAD 

 OUTPUT CONTROL FOR STRESS PERIOD    2   TIME STEP   32
    SAVE HEAD FOR ALL LAYERS
    SAVE DRAWDOWN FOR ALL LAYERS
    SAVE BUDGET
    PRINT HEAD FOR ALL LAYERS
    PRINT BUDGET
 UBDSV1 SAVING "         STORAGE" ON UNIT  53 AT TIME STEP 32, STRESS PERIOD   2
 UBDSV2 SAVING "   CONSTANT HEAD" ON UNIT  53 AT TIME STEP 32, STRESS PERIOD   2
 UBDSV1 SAVING "FLOW RIGHT FACE " ON UNIT  53 AT TIME STEP 32, STRESS PERIOD   2
 UBDSV1 SAVING "FLOW FRONT FACE " ON UNIT  53 AT TIME STEP 32, STRESS PERIOD   2
1
              HEAD IN LAYER   1 AT END OF TIME STEP  32 IN STRESS PERIOD    2
  ---------------------------------------------------------------------------

            1           2           3           4           5           6           7           8           9          10
 ........................................................................................................................
   1    9.991       8.939       7.881       6.809       5.720       4.611       3.483       2.336       1.178      1.1659E-02
   2    9.991       8.939       7.881       6.809       5.720       4.611       3.483       2.336       1.178      1.1659E-02
   3    9.991       8.939       7.881       6.809       5.720       4.611       3.483       2.336       1.178      1.1659E-02
   4    9.991       8.939       7.881       6.809       5.720       4.611       3.483       2.336       1.178      1.1659E-02
   5    9.991       8.939       7.881       6.809       5.720       4.611       3.483       2.336       1.178      1.1659E-02
   6    9.991       8.939       7.881       6.809       5.720       4.611       3.483       2.336       1.178      1.1659E-02
   7    9.991       8.939       7.881       6.809       5.720       4.611       3.483       2.336       1.178      1.1659E-02
   8    9.991       8.939       7.881       6.809       5.720       4.611       3.483       2.336       1.178      1.1659E-02
   9    9.991       8.939       7.881       6.809       5.720       4.611       3.483       2.336       1.178      1.1659E-02
  10    9.991       8.939       7.881       6.809       5.720       4.611       3.483       2.336       1.178      1.1659E-02

 HEAD WILL BE SAVED ON UNIT   51 AT END OF TIME STEP   32, STRESS PERIOD    2

 DRAWDOWN WILL BE SAVED ON UNIT   52 AT END OF TIME STEP   32, STRESS PERIOD    2
1
  VOLUMETRIC BUDGET FOR ENTIRE MODEL AT END OF TIME STEP   32, STRESS PERIOD   2
  ------------------------------------------------------------------------------

     CUMULATIVE VOLUMES      L**3       RATES FOR THIS TIME STEP      L**3/T
     ------------------                 ------------------------

           IN:                                      IN:
           ---                                      ---
             STORAGE =       24520.2422               STORAGE =          57.0819
       CONSTANT HEAD =           0.0000         CONSTANT HEAD =           0.0000
               WELLS =           0.0000                 WELLS =           0.0000
     HEAD DEP BOUNDS =       10551.1025       HEAD DEP BOUNDS =         525.8733

            TOTAL IN =       35071.3438              TOTAL IN =         582.9552

          OUT:                                     OUT:
          ----                                     ----
             STORAGE =           0.0000               STORAGE =           0.0000
       CONSTANT HEAD =           0.0000         CONSTANT HEAD =           0.0000
               WELLS =           0.0000                 WELLS =           0.0000
     HEAD DEP BOUNDS =       35071.3398       HEAD DEP BOUNDS =         582.9735

           TOTAL OUT =       35071.3398             TOTAL OUT =         582.9735

            IN - OUT =       3.9062E-03              IN - OUT =      -1.8311E-02

 PERCENT DISCREPANCY =           0.00     PERCENT DISCREPANCY =          -0.00






         TIME SUMMARY AT END OF TIME STEP   32 IN STRESS PERIOD    2
                    SECONDS     MINUTES      HOURS       DAYS        YEARS
                    -----------------------------------------------------------
   TIME STEP LENGTH  86400.      1440.0      24.000      1.0000     2.73785E-03
 STRESS PERIOD TIME 2.76480E+06  46080.      768.00      32.000     8.76112E-02
         TOTAL TIME 2.85120E+06  47520.      792.00      33.000     9.03491E-02
1

 SOLVING FOR HEAD 

 OUTPUT CONTROL FOR STRESS PERIOD    2   TIME STEP   33
    SAVE HEAD FOR ALL LAYERS
    SAVE DRAWDOWN FOR ALL LAYERS
    SAVE BUDGET
    PRINT HEAD FOR ALL LAYERS
    PRINT BUDGET
 UBDSV1 SAVING "         STORAGE" ON UNIT  53 AT TIME STEP 33, STRESS PERIOD   2
 UBDSV2 SAVING "   CONSTANT HEAD" ON UNIT  53 AT TIME STEP 33, STRESS PERIOD   2
 UBDSV1 SAVING "FLOW RIGHT FACE " ON UNIT  53 AT TIME STEP 33, STRESS PERIOD   2
 UBDSV1 SAVING "FLOW FRONT FACE " ON UNIT  53 AT TIME STEP 33, STRESS PERIOD   2
1
              HEAD IN LAYER   1 AT END OF TIME STEP  33 IN STRESS PERIOD    2
  ---------------------------------------------------------------------------

            1           2           3           4           5           6           7           8           9          10
 ........................................................................................................................
   1    9.991       8.933       7.869       6.793       5.702       4.593       3.467       2.325       1.171      1.1598E-02
   2    9.991       8.933       7.869       6.793       5.702       4.593       3.467       2.325       1.171      1.1598E-02
   3    9.991       8.933       7.869       6.793       5.702       4.593       3.467       2.325       1.171      1.1598E-02
   4    9.991       8.933       7.869       6.793       5.702       4.593       3.467       2.325       1.171      1.1598E-02
   5    9.991       8.933       7.869       6.793       5.702       4.593       3.467       2.325       1.171      1.1598E-02
   6    9.991       8.933       7.869       6.793       5.702       4.593       3.467       2.325       1.171      1.1598E-02
   7    9.991       8.933       7.869       6.793       5.702       4.593       3.467       2.325       1.171      1.1598E-02
   8    9.991       8.933       7.869       6.793       5.702       4.593       3.467       2.325       1.171      1.1598E-02
   9    9.991       8.933       7.869       6.793       5.702       4.593       3.467       2.325       1.171      1.1598E-02
  10    9.991       8.933       7.869       6.793       5.702       4.593       3.467       2.325       1.171      1.1598E-02

 HEAD WILL BE SAVED ON UNIT   51 AT END OF TIME STEP   33, STRESS PERIOD    2

 DRAWDOWN WILL BE SAVED ON UNIT   52 AT END OF TIME STEP   33, STRESS PERIOD    2
1
  VOLUMETRIC BUDGET FOR ENTIRE MODEL AT END OF TIME STEP   33, STRESS PERIOD   2
  ------------------------------------------------------------------------------

     CUMULATIVE VOLUMES      L**3       RATES FOR THIS TIME STEP      L**3/T
     ------------------                 ------------------------

           IN:                                      IN:
           ---                                      ---
             STORAGE =       24571.2031               STORAGE =          50.9608
       CONSTANT HEAD =           0.0000         CONSTANT HEAD =           0.0000
               WELLS =           0.0000                 WELLS =           0.0000
     HEAD DEP BOUNDS =       11080.0459       HEAD DEP BOUNDS =         528.9433

            TOTAL IN =       35651.2500              TOTAL IN =         579.9041

          OUT:                                     OUT:
          ----                                     ----
             STORAGE =           0.0000               STORAGE =           0.0000
       CONSTANT HEAD =           0.0000         CONSTANT HEAD =           0.0000
               WELLS =           0.0000                 WELLS =           0.0000
     HEAD DEP BOUNDS =       35651.2500       HEAD DEP BOUNDS =         579.9107

           TOTAL OUT =       35651.2500             TOTAL OUT =         579.9107

            IN - OUT =           0.0000              IN - OUT =      -6.6528E-03

 PERCENT DISCREPANCY =           0.00     PERCENT DISCREPANCY =          -0.00






         TIME SUMMARY AT END OF TIME STEP   33 IN STRESS PERIOD    2
                    SECONDS     MINUTES      HOURS       DAYS        YEARS
                    -----------------------------------------------------------
   TIME STEP LENGTH  86400.      1440.0      24.000      1.0000     2.73785E-03
 STRESS PERIOD TIME 2.85120E+06  47520.      792.00      33.000     9.03491E-02
         TOTAL TIME 2.93760E+06  48960.      816.00      34.000     9.30869E-02
1

 SOLVING FOR HEAD 

 OUTPUT CONTROL FOR STRESS PERIOD    2   TIME STEP   34
    SAVE HEAD FOR ALL LAYERS
    SAVE DRAWDOWN FOR ALL LAYERS
    SAVE BUDGET
    PRINT HEAD FOR ALL LAYERS
    PRINT BUDGET
 UBDSV1 SAVING "         STORAGE" ON UNIT  53 AT TIME STEP 34, STRESS PERIOD   2
 UBDSV2 SAVING "   CONSTANT HEAD" ON UNIT  53 AT TIME STEP 34, STRESS PERIOD   2
 UBDSV1 SAVING "FLOW RIGHT FACE " ON UNIT  53 AT TIME STEP 34, STRESS PERIOD   2
 UBDSV1 SAVING "FLOW FRONT FACE " ON UNIT  53 AT TIME STEP 34, STRESS PERIOD   2
1
              HEAD IN LAYER   1 AT END OF TIME STEP  34 IN STRESS PERIOD    2
  ---------------------------------------------------------------------------

            1           2           3           4           5           6           7           8           9          10
 ........................................................................................................................
   1    9.991       8.928       7.859       6.780       5.687       4.578       3.453       2.315       1.166      1.1544E-02
   2    9.991       8.928       7.859       6.780       5.687       4.578       3.453       2.315       1.166      1.1544E-02
   3    9.991       8.928       7.859       6.780       5.687       4.578       3.453       2.315       1.166      1.1544E-02
   4    9.991       8.928       7.859       6.780       5.687       4.578       3.453       2.315       1.166      1.1544E-02
   5    9.991       8.928       7.859       6.780       5.687       4.578       3.453       2.315       1.166      1.1544E-02
   6    9.991       8.928       7.859       6.780       5.687       4.578       3.453       2.315       1.166      1.1544E-02
   7    9.991       8.928       7.859       6.780       5.687       4.578       3.453       2.315       1.166      1.1544E-02
   8    9.991       8.928       7.859       6.780       5.687       4.578       3.453       2.315       1.166      1.1544E-02
   9    9.991       8.928       7.859       6.780       5.687       4.578       3.453       2.315       1.166      1.1544E-02
  10    9.991       8.928       7.859       6.780       5.687       4.578       3.453       2.315       1.166      1.1544E-02

 HEAD WILL BE SAVED ON UNIT   51 AT END OF TIME STEP   34, STRESS PERIOD    2

 DRAWDOWN WILL BE SAVED ON UNIT   52 AT END OF TIME STEP   34, STRESS PERIOD    2
1
  VOLUMETRIC BUDGET FOR ENTIRE MODEL AT END OF TIME STEP   34, STRESS PERIOD   2
  ------------------------------------------------------------------------------

     CUMULATIVE VOLUMES      L**3       RATES FOR THIS TIME STEP      L**3/T
     ------------------                 ------------------------

           IN:                                      IN:
           ---                                      ---
             STORAGE =       24616.6973               STORAGE =          45.4944
       CONSTANT HEAD =           0.0000         CONSTANT HEAD =           0.0000
               WELLS =           0.0000                 WELLS =           0.0000
     HEAD DEP BOUNDS =       11611.7344       HEAD DEP BOUNDS =         531.6883

            TOTAL IN =       36228.4297              TOTAL IN =         577.1827

          OUT:                                     OUT:
          ----                                     ----
             STORAGE =           0.0000               STORAGE =           0.0000
       CONSTANT HEAD =           0.0000         CONSTANT HEAD =           0.0000
               WELLS =           0.0000                 WELLS =           0.0000
     HEAD DEP BOUNDS =       36228.4258       HEAD DEP BOUNDS =         577.1767

           TOTAL OUT =       36228.4258             TOTAL OUT =         577.1767

            IN - OUT =       3.9062E-03              IN - OUT =       5.9814E-03

 PERCENT DISCREPANCY =           0.00     PERCENT DISCREPANCY =           0.00






         TIME SUMMARY AT END OF TIME STEP   34 IN STRESS PERIOD    2
                    SECONDS     MINUTES      HOURS       DAYS        YEARS
                    -----------------------------------------------------------
   TIME STEP LENGTH  86400.      1440.0      24.000      1.0000     2.73785E-03
 STRESS PERIOD TIME 2.93760E+06  48960.      816.00      34.000     9.30869E-02
         TOTAL TIME 3.02400E+06  50400.      840.00      35.000     9.58248E-02
1

 SOLVING FOR HEAD 

 OUTPUT CONTROL FOR STRESS PERIOD    2   TIME STEP   35
    SAVE HEAD FOR ALL LAYERS
    SAVE DRAWDOWN FOR ALL LAYERS
    SAVE BUDGET
    PRINT HEAD FOR ALL LAYERS
    PRINT BUDGET
 UBDSV1 SAVING "         STORAGE" ON UNIT  53 AT TIME STEP 35, STRESS PERIOD   2
 UBDSV2 SAVING "   CONSTANT HEAD" ON UNIT  53 AT TIME STEP 35, STRESS PERIOD   2
 UBDSV1 SAVING "FLOW RIGHT FACE " ON UNIT  53 AT TIME STEP 35, STRESS PERIOD   2
 UBDSV1 SAVING "FLOW FRONT FACE " ON UNIT  53 AT TIME STEP 35, STRESS PERIOD   2
1
              HEAD IN LAYER   1 AT END OF TIME STEP  35 IN STRESS PERIOD    2
  ---------------------------------------------------------------------------

            1           2           3           4           5           6           7           8           9          10
 ........................................................................................................................
   1    9.991       8.923       7.850       6.767       5.672       4.564       3.441       2.305       1.161      1.1495E-02
   2    9.991       8.923       7.850       6.767       5.672       4.564       3.441       2.305       1.161      1.1495E-02
   3    9.991       8.923       7.850       6.767       5.672       4.564       3.441       2.305       1.161      1.1495E-02
   4    9.991       8.923       7.850       6.767       5.672       4.564       3.441       2.305       1.161      1.1495E-02
   5    9.991       8.923       7.850       6.767       5.672       4.564       3.441       2.305       1.161      1.1495E-02
   6    9.991       8.923       7.850       6.767       5.672       4.564       3.441       2.305       1.161      1.1495E-02
   7    9.991       8.923       7.850       6.767       5.672       4.564       3.441       2.305       1.161      1.1495E-02
   8    9.991       8.923       7.850       6.767       5.672       4.564       3.441       2.305       1.161      1.1495E-02
   9    9.991       8.923       7.850       6.767       5.672       4.564       3.441       2.305       1.161      1.1495E-02
  10    9.991       8.923       7.850       6.767       5.672       4.564       3.441       2.305       1.161      1.1495E-02

 HEAD WILL BE SAVED ON UNIT   51 AT END OF TIME STEP   35, STRESS PERIOD    2

 DRAWDOWN WILL BE SAVED ON UNIT   52 AT END OF TIME STEP   35, STRESS PERIOD    2
1
  VOLUMETRIC BUDGET FOR ENTIRE MODEL AT END OF TIME STEP   35, STRESS PERIOD   2
  ------------------------------------------------------------------------------

     CUMULATIVE VOLUMES      L**3       RATES FOR THIS TIME STEP      L**3/T
     ------------------                 ------------------------

           IN:                                      IN:
           ---                                      ---
             STORAGE =       24657.3125               STORAGE =          40.6143
       CONSTANT HEAD =           0.0000         CONSTANT HEAD =           0.0000
               WELLS =           0.0000                 WELLS =           0.0000
     HEAD DEP BOUNDS =       12145.8389       HEAD DEP BOUNDS =         534.1047

            TOTAL IN =       36803.1523              TOTAL IN =         574.7190

          OUT:                                     OUT:
          ----                                     ----
             STORAGE =           0.0000               STORAGE =           0.0000
       CONSTANT HEAD =           0.0000         CONSTANT HEAD =           0.0000
               WELLS =           0.0000                 WELLS =           0.0000
     HEAD DEP BOUNDS =       36803.1602       HEAD DEP BOUNDS =         574.7361

           TOTAL OUT =       36803.1602             TOTAL OUT =         574.7361

            IN - OUT =      -7.8125E-03              IN - OUT =      -1.7151E-02

 PERCENT DISCREPANCY =          -0.00     PERCENT DISCREPANCY =          -0.00






         TIME SUMMARY AT END OF TIME STEP   35 IN STRESS PERIOD    2
                    SECONDS     MINUTES      HOURS       DAYS        YEARS
                    -----------------------------------------------------------
   TIME STEP LENGTH  86400.      1440.0      24.000      1.0000     2.73785E-03
 STRESS PERIOD TIME 3.02400E+06  50400.      840.00      35.000     9.58248E-02
         TOTAL TIME 3.11040E+06  51840.      864.00      36.000     9.85626E-02
1

 SOLVING FOR HEAD 

 OUTPUT CONTROL FOR STRESS PERIOD    2   TIME STEP   36
    SAVE HEAD FOR ALL LAYERS
    SAVE DRAWDOWN FOR ALL LAYERS
    SAVE BUDGET
    PRINT HEAD FOR ALL LAYERS
    PRINT BUDGET
 UBDSV1 SAVING "         STORAGE" ON UNIT  53 AT TIME STEP 36, STRESS PERIOD   2
 UBDSV2 SAVING "   CONSTANT HEAD" ON UNIT  53 AT TIME STEP 36, STRESS PERIOD   2
 UBDSV1 SAVING "FLOW RIGHT FACE " ON UNIT  53 AT TIME STEP 36, STRESS PERIOD   2
 UBDSV1 SAVING "FLOW FRONT FACE " ON UNIT  53 AT TIME STEP 36, STRESS PERIOD   2
1
              HEAD IN LAYER   1 AT END OF TIME STEP  36 IN STRESS PERIOD    2
  ---------------------------------------------------------------------------

            1           2           3           4           5           6           7           8           9          10
 ........................................................................................................................
   1    9.991       8.918       7.841       6.756       5.660       4.551       3.430       2.297       1.157      1.1451E-02
   2    9.991       8.918       7.841       6.756       5.660       4.551       3.430       2.297       1.157      1.1451E-02
   3    9.991       8.918       7.841       6.756       5.660       4.551       3.430       2.297       1.157      1.1451E-02
   4    9.991       8.918       7.841       6.756       5.660       4.551       3.430       2.297       1.157      1.1451E-02
   5    9.991       8.918       7.841       6.756       5.660       4.551       3.430       2.297       1.157      1.1451E-02
   6    9.991       8.918       7.841       6.756       5.660       4.551       3.430       2.297       1.157      1.1451E-02
   7    9.991       8.918       7.841       6.756       5.660       4.551       3.430       2.297       1.157      1.1451E-02
   8    9.991       8.918       7.841       6.756       5.660       4.551       3.430       2.297       1.157      1.1451E-02
   9    9.991       8.918       7.841       6.756       5.660       4.551       3.430       2.297       1.157      1.1451E-02
  10    9.991       8.918       7.841       6.756       5.660       4.551       3.430       2.297       1.157      1.1451E-02

 HEAD WILL BE SAVED ON UNIT   51 AT END OF TIME STEP   36, STRESS PERIOD    2

 DRAWDOWN WILL BE SAVED ON UNIT   52 AT END OF TIME STEP   36, STRESS PERIOD    2
1
  VOLUMETRIC BUDGET FOR ENTIRE MODEL AT END OF TIME STEP   36, STRESS PERIOD   2
  ------------------------------------------------------------------------------

     CUMULATIVE VOLUMES      L**3       RATES FOR THIS TIME STEP      L**3/T
     ------------------                 ------------------------

           IN:                                      IN:
           ---                                      ---
             STORAGE =       24693.5723               STORAGE =          36.2597
       CONSTANT HEAD =           0.0000         CONSTANT HEAD =           0.0000
               WELLS =           0.0000                 WELLS =           0.0000
     HEAD DEP BOUNDS =       12682.1396       HEAD DEP BOUNDS =         536.3006

            TOTAL IN =       37375.7109              TOTAL IN =         572.5603

          OUT:                                     OUT:
          ----                                     ----
             STORAGE =           0.0000               STORAGE =           0.0000
       CONSTANT HEAD =           0.0000         CONSTANT HEAD =           0.0000
               WELLS =           0.0000                 WELLS =           0.0000
     HEAD DEP BOUNDS =       37375.7188       HEAD DEP BOUNDS =         572.5576

           TOTAL OUT =       37375.7188             TOTAL OUT =         572.5576

            IN - OUT =      -7.8125E-03              IN - OUT =       2.7466E-03

 PERCENT DISCREPANCY =          -0.00     PERCENT DISCREPANCY =           0.00






         TIME SUMMARY AT END OF TIME STEP   36 IN STRESS PERIOD    2
                    SECONDS     MINUTES      HOURS       DAYS        YEARS
                    -----------------------------------------------------------
   TIME STEP LENGTH  86400.      1440.0      24.000      1.0000     2.73785E-03
 STRESS PERIOD TIME 3.11040E+06  51840.      864.00      36.000     9.85626E-02
         TOTAL TIME 3.19680E+06  53280.      888.00      37.000     0.10130    
1

 SOLVING FOR HEAD 

 OUTPUT CONTROL FOR STRESS PERIOD    2   TIME STEP   37
    SAVE HEAD FOR ALL LAYERS
    SAVE DRAWDOWN FOR ALL LAYERS
    SAVE BUDGET
    PRINT HEAD FOR ALL LAYERS
    PRINT BUDGET
 UBDSV1 SAVING "         STORAGE" ON UNIT  53 AT TIME STEP 37, STRESS PERIOD   2
 UBDSV2 SAVING "   CONSTANT HEAD" ON UNIT  53 AT TIME STEP 37, STRESS PERIOD   2
 UBDSV1 SAVING "FLOW RIGHT FACE " ON UNIT  53 AT TIME STEP 37, STRESS PERIOD   2
 UBDSV1 SAVING "FLOW FRONT FACE " ON UNIT  53 AT TIME STEP 37, STRESS PERIOD   2
1
              HEAD IN LAYER   1 AT END OF TIME STEP  37 IN STRESS PERIOD    2
  ---------------------------------------------------------------------------

            1           2           3           4           5           6           7           8           9          10
 ........................................................................................................................
   1    9.991       8.915       7.834       6.746       5.649       4.540       3.420       2.290       1.153      1.1412E-02
   2    9.991       8.915       7.834       6.746       5.649       4.540       3.420       2.290       1.153      1.1412E-02
   3    9.991       8.915       7.834       6.746       5.649       4.540       3.420       2.290       1.153      1.1412E-02
   4    9.991       8.915       7.834       6.746       5.649       4.540       3.420       2.290       1.153      1.1412E-02
   5    9.991       8.915       7.834       6.746       5.649       4.540       3.420       2.290       1.153      1.1412E-02
   6    9.991       8.915       7.834       6.746       5.649       4.540       3.420       2.290       1.153      1.1412E-02
   7    9.991       8.915       7.834       6.746       5.649       4.540       3.420       2.290       1.153      1.1412E-02
   8    9.991       8.915       7.834       6.746       5.649       4.540       3.420       2.290       1.153      1.1412E-02
   9    9.991       8.915       7.834       6.746       5.649       4.540       3.420       2.290       1.153      1.1412E-02
  10    9.991       8.915       7.834       6.746       5.649       4.540       3.420       2.290       1.153      1.1412E-02

 HEAD WILL BE SAVED ON UNIT   51 AT END OF TIME STEP   37, STRESS PERIOD    2

 DRAWDOWN WILL BE SAVED ON UNIT   52 AT END OF TIME STEP   37, STRESS PERIOD    2
1
  VOLUMETRIC BUDGET FOR ENTIRE MODEL AT END OF TIME STEP   37, STRESS PERIOD   2
  ------------------------------------------------------------------------------

     CUMULATIVE VOLUMES      L**3       RATES FOR THIS TIME STEP      L**3/T
     ------------------                 ------------------------

           IN:                                      IN:
           ---                                      ---
             STORAGE =       24725.9414               STORAGE =          32.3696
       CONSTANT HEAD =           0.0000         CONSTANT HEAD =           0.0000
               WELLS =           0.0000                 WELLS =           0.0000
     HEAD DEP BOUNDS =       13220.3662       HEAD DEP BOUNDS =         538.2268

            TOTAL IN =       37946.3086              TOTAL IN =         570.5964

          OUT:                                     OUT:
          ----                                     ----
             STORAGE =           0.0000               STORAGE =           0.0000
       CONSTANT HEAD =           0.0000         CONSTANT HEAD =           0.0000
               WELLS =           0.0000                 WELLS =           0.0000
     HEAD DEP BOUNDS =       37946.3320       HEAD DEP BOUNDS =         570.6127

           TOTAL OUT =       37946.3320             TOTAL OUT =         570.6127

            IN - OUT =      -2.3438E-02              IN - OUT =      -1.6235E-02

 PERCENT DISCREPANCY =          -0.00     PERCENT DISCREPANCY =          -0.00






         TIME SUMMARY AT END OF TIME STEP   37 IN STRESS PERIOD    2
                    SECONDS     MINUTES      HOURS       DAYS        YEARS
                    -----------------------------------------------------------
   TIME STEP LENGTH  86400.      1440.0      24.000      1.0000     2.73785E-03
 STRESS PERIOD TIME 3.19680E+06  53280.      888.00      37.000     0.10130    
         TOTAL TIME 3.28320E+06  54720.      912.00      38.000     0.10404    
1

 SOLVING FOR HEAD 

 OUTPUT CONTROL FOR STRESS PERIOD    2   TIME STEP   38
    SAVE HEAD FOR ALL LAYERS
    SAVE DRAWDOWN FOR ALL LAYERS
    SAVE BUDGET
    PRINT HEAD FOR ALL LAYERS
    PRINT BUDGET
 UBDSV1 SAVING "         STORAGE" ON UNIT  53 AT TIME STEP 38, STRESS PERIOD   2
 UBDSV2 SAVING "   CONSTANT HEAD" ON UNIT  53 AT TIME STEP 38, STRESS PERIOD   2
 UBDSV1 SAVING "FLOW RIGHT FACE " ON UNIT  53 AT TIME STEP 38, STRESS PERIOD   2
 UBDSV1 SAVING "FLOW FRONT FACE " ON UNIT  53 AT TIME STEP 38, STRESS PERIOD   2
1
              HEAD IN LAYER   1 AT END OF TIME STEP  38 IN STRESS PERIOD    2
  ---------------------------------------------------------------------------

            1           2           3           4           5           6           7           8           9          10
 ........................................................................................................................
   1    9.991       8.911       7.828       6.738       5.639       4.530       3.411       2.283       1.149      1.1378E-02
   2    9.991       8.911       7.828       6.738       5.639       4.530       3.411       2.283       1.149      1.1378E-02
   3    9.991       8.911       7.828       6.738       5.639       4.530       3.411       2.283       1.149      1.1378E-02
   4    9.991       8.911       7.828       6.738       5.639       4.530       3.411       2.283       1.149      1.1378E-02
   5    9.991       8.911       7.828       6.738       5.639       4.530       3.411       2.283       1.149      1.1378E-02
   6    9.991       8.911       7.828       6.738       5.639       4.530       3.411       2.283       1.149      1.1378E-02
   7    9.991       8.911       7.828       6.738       5.639       4.530       3.411       2.283       1.149      1.1378E-02
   8    9.991       8.911       7.828       6.738       5.639       4.530       3.411       2.283       1.149      1.1378E-02
   9    9.991       8.911       7.828       6.738       5.639       4.530       3.411       2.283       1.149      1.1378E-02
  10    9.991       8.911       7.828       6.738       5.639       4.530       3.411       2.283       1.149      1.1378E-02

 HEAD WILL BE SAVED ON UNIT   51 AT END OF TIME STEP   38, STRESS PERIOD    2

 DRAWDOWN WILL BE SAVED ON UNIT   52 AT END OF TIME STEP   38, STRESS PERIOD    2
1
  VOLUMETRIC BUDGET FOR ENTIRE MODEL AT END OF TIME STEP   38, STRESS PERIOD   2
  ------------------------------------------------------------------------------

     CUMULATIVE VOLUMES      L**3       RATES FOR THIS TIME STEP      L**3/T
     ------------------                 ------------------------

           IN:                                      IN:
           ---                                      ---
             STORAGE =       24754.8398               STORAGE =          28.8990
       CONSTANT HEAD =           0.0000         CONSTANT HEAD =           0.0000
               WELLS =           0.0000                 WELLS =           0.0000
     HEAD DEP BOUNDS =       13760.3516       HEAD DEP BOUNDS =         539.9850

            TOTAL IN =       38515.1914              TOTAL IN =         568.8840

          OUT:                                     OUT:
          ----                                     ----
             STORAGE =           0.0000               STORAGE =           0.0000
       CONSTANT HEAD =           0.0000         CONSTANT HEAD =           0.0000
               WELLS =           0.0000                 WELLS =           0.0000
     HEAD DEP BOUNDS =       38515.2070       HEAD DEP BOUNDS =         568.8765

           TOTAL OUT =       38515.2070             TOTAL OUT =         568.8765

            IN - OUT =      -1.5625E-02              IN - OUT =       7.5073E-03

 PERCENT DISCREPANCY =          -0.00     PERCENT DISCREPANCY =           0.00






         TIME SUMMARY AT END OF TIME STEP   38 IN STRESS PERIOD    2
                    SECONDS     MINUTES      HOURS       DAYS        YEARS
                    -----------------------------------------------------------
   TIME STEP LENGTH  86400.      1440.0      24.000      1.0000     2.73785E-03
 STRESS PERIOD TIME 3.28320E+06  54720.      912.00      38.000     0.10404    
         TOTAL TIME 3.36960E+06  56160.      936.00      39.000     0.10678    
1

 SOLVING FOR HEAD 

 OUTPUT CONTROL FOR STRESS PERIOD    2   TIME STEP   39
    SAVE HEAD FOR ALL LAYERS
    SAVE DRAWDOWN FOR ALL LAYERS
    SAVE BUDGET
    PRINT HEAD FOR ALL LAYERS
    PRINT BUDGET
 UBDSV1 SAVING "         STORAGE" ON UNIT  53 AT TIME STEP 39, STRESS PERIOD   2
 UBDSV2 SAVING "   CONSTANT HEAD" ON UNIT  53 AT TIME STEP 39, STRESS PERIOD   2
 UBDSV1 SAVING "FLOW RIGHT FACE " ON UNIT  53 AT TIME STEP 39, STRESS PERIOD   2
 UBDSV1 SAVING "FLOW FRONT FACE " ON UNIT  53 AT TIME STEP 39, STRESS PERIOD   2
1
              HEAD IN LAYER   1 AT END OF TIME STEP  39 IN STRESS PERIOD    2
  ---------------------------------------------------------------------------

            1           2           3           4           5           6           7           8           9          10
 ........................................................................................................................
   1    9.991       8.908       7.822       6.730       5.630       4.521       3.403       2.277       1.146      1.1347E-02
   2    9.991       8.908       7.822       6.730       5.630       4.521       3.403       2.277       1.146      1.1347E-02
   3    9.991       8.908       7.822       6.730       5.630       4.521       3.403       2.277       1.146      1.1347E-02
   4    9.991       8.908       7.822       6.730       5.630       4.521       3.403       2.277       1.146      1.1347E-02
   5    9.991       8.908       7.822       6.730       5.630       4.521       3.403       2.277       1.146      1.1347E-02
   6    9.991       8.908       7.822       6.730       5.630       4.521       3.403       2.277       1.146      1.1347E-02
   7    9.991       8.908       7.822       6.730       5.630       4.521       3.403       2.277       1.146      1.1347E-02
   8    9.991       8.908       7.822       6.730       5.630       4.521       3.403       2.277       1.146      1.1347E-02
   9    9.991       8.908       7.822       6.730       5.630       4.521       3.403       2.277       1.146      1.1347E-02
  10    9.991       8.908       7.822       6.730       5.630       4.521       3.403       2.277       1.146      1.1347E-02

 HEAD WILL BE SAVED ON UNIT   51 AT END OF TIME STEP   39, STRESS PERIOD    2

 DRAWDOWN WILL BE SAVED ON UNIT   52 AT END OF TIME STEP   39, STRESS PERIOD    2
1
  VOLUMETRIC BUDGET FOR ENTIRE MODEL AT END OF TIME STEP   39, STRESS PERIOD   2
  ------------------------------------------------------------------------------

     CUMULATIVE VOLUMES      L**3       RATES FOR THIS TIME STEP      L**3/T
     ------------------                 ------------------------

           IN:                                      IN:
           ---                                      ---
             STORAGE =       24780.6387               STORAGE =          25.7990
       CONSTANT HEAD =           0.0000         CONSTANT HEAD =           0.0000
               WELLS =           0.0000                 WELLS =           0.0000
     HEAD DEP BOUNDS =       14301.8721       HEAD DEP BOUNDS =         541.5203

            TOTAL IN =       39082.5117              TOTAL IN =         567.3193

          OUT:                                     OUT:
          ----                                     ----
             STORAGE =           0.0000               STORAGE =           0.0000
       CONSTANT HEAD =           0.0000         CONSTANT HEAD =           0.0000
               WELLS =           0.0000                 WELLS =           0.0000
     HEAD DEP BOUNDS =       39082.5352       HEAD DEP BOUNDS =         567.3265

           TOTAL OUT =       39082.5352             TOTAL OUT =         567.3265

            IN - OUT =      -2.3438E-02              IN - OUT =      -7.1411E-03

 PERCENT DISCREPANCY =          -0.00     PERCENT DISCREPANCY =          -0.00






         TIME SUMMARY AT END OF TIME STEP   39 IN STRESS PERIOD    2
                    SECONDS     MINUTES      HOURS       DAYS        YEARS
                    -----------------------------------------------------------
   TIME STEP LENGTH  86400.      1440.0      24.000      1.0000     2.73785E-03
 STRESS PERIOD TIME 3.36960E+06  56160.      936.00      39.000     0.10678    
         TOTAL TIME 3.45600E+06  57600.      960.00      40.000     0.10951    
1

 SOLVING FOR HEAD 

 OUTPUT CONTROL FOR STRESS PERIOD    2   TIME STEP   40
    SAVE HEAD FOR ALL LAYERS
    SAVE DRAWDOWN FOR ALL LAYERS
    SAVE BUDGET
    PRINT HEAD FOR ALL LAYERS
    PRINT BUDGET
 UBDSV1 SAVING "         STORAGE" ON UNIT  53 AT TIME STEP 40, STRESS PERIOD   2
 UBDSV2 SAVING "   CONSTANT HEAD" ON UNIT  53 AT TIME STEP 40, STRESS PERIOD   2
 UBDSV1 SAVING "FLOW RIGHT FACE " ON UNIT  53 AT TIME STEP 40, STRESS PERIOD   2
 UBDSV1 SAVING "FLOW FRONT FACE " ON UNIT  53 AT TIME STEP 40, STRESS PERIOD   2
1
              HEAD IN LAYER   1 AT END OF TIME STEP  40 IN STRESS PERIOD    2
  ---------------------------------------------------------------------------

            1           2           3           4           5           6           7           8           9          10
 ........................................................................................................................
   1    9.991       8.905       7.816       6.723       5.622       4.513       3.396       2.272       1.143      1.1319E-02
   2    9.991       8.905       7.816       6.723       5.622       4.513       3.396       2.272       1.143      1.1319E-02
   3    9.991       8.905       7.816       6.723       5.622       4.513       3.396       2.272       1.143      1.1319E-02
   4    9.991       8.905       7.816       6.723       5.622       4.513       3.396       2.272       1.143      1.1319E-02
   5    9.991       8.905       7.816       6.723       5.622       4.513       3.396       2.272       1.143      1.1319E-02
   6    9.991       8.905       7.816       6.723       5.622       4.513       3.396       2.272       1.143      1.1319E-02
   7    9.991       8.905       7.816       6.723       5.622       4.513       3.396       2.272       1.143      1.1319E-02
   8    9.991       8.905       7.816       6.723       5.622       4.513       3.396       2.272       1.143      1.1319E-02
   9    9.991       8.905       7.816       6.723       5.622       4.513       3.396       2.272       1.143      1.1319E-02
  10    9.991       8.905       7.816       6.723       5.622       4.513       3.396       2.272       1.143      1.1319E-02

 HEAD WILL BE SAVED ON UNIT   51 AT END OF TIME STEP   40, STRESS PERIOD    2

 DRAWDOWN WILL BE SAVED ON UNIT   52 AT END OF TIME STEP   40, STRESS PERIOD    2
1
  VOLUMETRIC BUDGET FOR ENTIRE MODEL AT END OF TIME STEP   40, STRESS PERIOD   2
  ------------------------------------------------------------------------------

     CUMULATIVE VOLUMES      L**3       RATES FOR THIS TIME STEP      L**3/T
     ------------------                 ------------------------

           IN:                                      IN:
           ---                                      ---
             STORAGE =       24803.6699               STORAGE =          23.0319
       CONSTANT HEAD =           0.0000         CONSTANT HEAD =           0.0000
               WELLS =           0.0000                 WELLS =           0.0000
     HEAD DEP BOUNDS =       14844.8018       HEAD DEP BOUNDS =         542.9294

            TOTAL IN =       39648.4727              TOTAL IN =         565.9612

          OUT:                                     OUT:
          ----                                     ----
             STORAGE =           0.0000               STORAGE =           0.0000
       CONSTANT HEAD =           0.0000         CONSTANT HEAD =           0.0000
               WELLS =           0.0000                 WELLS =           0.0000
     HEAD DEP BOUNDS =       39648.4766       HEAD DEP BOUNDS =         565.9428

           TOTAL OUT =       39648.4766             TOTAL OUT =         565.9428

            IN - OUT =      -3.9062E-03              IN - OUT =       1.8433E-02

 PERCENT DISCREPANCY =          -0.00     PERCENT DISCREPANCY =           0.00






         TIME SUMMARY AT END OF TIME STEP   40 IN STRESS PERIOD    2
                    SECONDS     MINUTES      HOURS       DAYS        YEARS
                    -----------------------------------------------------------
   TIME STEP LENGTH  86400.      1440.0      24.000      1.0000     2.73785E-03
 STRESS PERIOD TIME 3.45600E+06  57600.      960.00      40.000     0.10951    
         TOTAL TIME 3.54240E+06  59040.      984.00      41.000     0.11225    
1

 SOLVING FOR HEAD 

 OUTPUT CONTROL FOR STRESS PERIOD    2   TIME STEP   41
    SAVE HEAD FOR ALL LAYERS
    SAVE DRAWDOWN FOR ALL LAYERS
    SAVE BUDGET
    PRINT HEAD FOR ALL LAYERS
    PRINT BUDGET
 UBDSV1 SAVING "         STORAGE" ON UNIT  53 AT TIME STEP 41, STRESS PERIOD   2
 UBDSV2 SAVING "   CONSTANT HEAD" ON UNIT  53 AT TIME STEP 41, STRESS PERIOD   2
 UBDSV1 SAVING "FLOW RIGHT FACE " ON UNIT  53 AT TIME STEP 41, STRESS PERIOD   2
 UBDSV1 SAVING "FLOW FRONT FACE " ON UNIT  53 AT TIME STEP 41, STRESS PERIOD   2
1
              HEAD IN LAYER   1 AT END OF TIME STEP  41 IN STRESS PERIOD    2
  ---------------------------------------------------------------------------

            1           2           3           4           5           6           7           8           9          10
 ........................................................................................................................
   1    9.991       8.903       7.812       6.716       5.615       4.506       3.390       2.268       1.141      1.1294E-02
   2    9.991       8.903       7.812       6.716       5.615       4.506       3.390       2.268       1.141      1.1294E-02
   3    9.991       8.903       7.812       6.716       5.615       4.506       3.390       2.268       1.141      1.1294E-02
   4    9.991       8.903       7.812       6.716       5.615       4.506       3.390       2.268       1.141      1.1294E-02
   5    9.991       8.903       7.812       6.716       5.615       4.506       3.390       2.268       1.141      1.1294E-02
   6    9.991       8.903       7.812       6.716       5.615       4.506       3.390       2.268       1.141      1.1294E-02
   7    9.991       8.903       7.812       6.716       5.615       4.506       3.390       2.268       1.141      1.1294E-02
   8    9.991       8.903       7.812       6.716       5.615       4.506       3.390       2.268       1.141      1.1294E-02
   9    9.991       8.903       7.812       6.716       5.615       4.506       3.390       2.268       1.141      1.1294E-02
  10    9.991       8.903       7.812       6.716       5.615       4.506       3.390       2.268       1.141      1.1294E-02

 HEAD WILL BE SAVED ON UNIT   51 AT END OF TIME STEP   41, STRESS PERIOD    2

 DRAWDOWN WILL BE SAVED ON UNIT   52 AT END OF TIME STEP   41, STRESS PERIOD    2
1
  VOLUMETRIC BUDGET FOR ENTIRE MODEL AT END OF TIME STEP   41, STRESS PERIOD   2
  ------------------------------------------------------------------------------

     CUMULATIVE VOLUMES      L**3       RATES FOR THIS TIME STEP      L**3/T
     ------------------                 ------------------------

           IN:                                      IN:
           ---                                      ---
             STORAGE =       24824.2324               STORAGE =          20.5616
       CONSTANT HEAD =           0.0000         CONSTANT HEAD =           0.0000
               WELLS =           0.0000                 WELLS =           0.0000
     HEAD DEP BOUNDS =       15388.9551       HEAD DEP BOUNDS =         544.1531

            TOTAL IN =       40213.1875              TOTAL IN =         564.7147

          OUT:                                     OUT:
          ----                                     ----
             STORAGE =           0.0000               STORAGE =           0.0000
       CONSTANT HEAD =           0.0000         CONSTANT HEAD =           0.0000
               WELLS =           0.0000                 WELLS =           0.0000
     HEAD DEP BOUNDS =       40213.1836       HEAD DEP BOUNDS =         564.7076

           TOTAL OUT =       40213.1836             TOTAL OUT =         564.7076

            IN - OUT =       3.9062E-03              IN - OUT =       7.1411E-03

 PERCENT DISCREPANCY =           0.00     PERCENT DISCREPANCY =           0.00






         TIME SUMMARY AT END OF TIME STEP   41 IN STRESS PERIOD    2
                    SECONDS     MINUTES      HOURS       DAYS        YEARS
                    -----------------------------------------------------------
   TIME STEP LENGTH  86400.      1440.0      24.000      1.0000     2.73785E-03
 STRESS PERIOD TIME 3.54240E+06  59040.      984.00      41.000     0.11225    
         TOTAL TIME 3.62880E+06  60480.      1008.0      42.000     0.11499    
1

 SOLVING FOR HEAD 

 OUTPUT CONTROL FOR STRESS PERIOD    2   TIME STEP   42
    SAVE HEAD FOR ALL LAYERS
    SAVE DRAWDOWN FOR ALL LAYERS
    SAVE BUDGET
    PRINT HEAD FOR ALL LAYERS
    PRINT BUDGET
 UBDSV1 SAVING "         STORAGE" ON UNIT  53 AT TIME STEP 42, STRESS PERIOD   2
 UBDSV2 SAVING "   CONSTANT HEAD" ON UNIT  53 AT TIME STEP 42, STRESS PERIOD   2
 UBDSV1 SAVING "FLOW RIGHT FACE " ON UNIT  53 AT TIME STEP 42, STRESS PERIOD   2
 UBDSV1 SAVING "FLOW FRONT FACE " ON UNIT  53 AT TIME STEP 42, STRESS PERIOD   2
1
              HEAD IN LAYER   1 AT END OF TIME STEP  42 IN STRESS PERIOD    2
  ---------------------------------------------------------------------------

            1           2           3           4           5           6           7           8           9          10
 ........................................................................................................................
   1    9.991       8.900       7.808       6.711       5.608       4.499       3.384       2.263       1.138      1.1272E-02
   2    9.991       8.900       7.808       6.711       5.608       4.499       3.384       2.263       1.138      1.1272E-02
   3    9.991       8.900       7.808       6.711       5.608       4.499       3.384       2.263       1.138      1.1272E-02
   4    9.991       8.900       7.808       6.711       5.608       4.499       3.384       2.263       1.138      1.1272E-02
   5    9.991       8.900       7.808       6.711       5.608       4.499       3.384       2.263       1.138      1.1272E-02
   6    9.991       8.900       7.808       6.711       5.608       4.499       3.384       2.263       1.138      1.1272E-02
   7    9.991       8.900       7.808       6.711       5.608       4.499       3.384       2.263       1.138      1.1272E-02
   8    9.991       8.900       7.808       6.711       5.608       4.499       3.384       2.263       1.138      1.1272E-02
   9    9.991       8.900       7.808       6.711       5.608       4.499       3.384       2.263       1.138      1.1272E-02
  10    9.991       8.900       7.808       6.711       5.608       4.499       3.384       2.263       1.138      1.1272E-02

 HEAD WILL BE SAVED ON UNIT   51 AT END OF TIME STEP   42, STRESS PERIOD    2

 DRAWDOWN WILL BE SAVED ON UNIT   52 AT END OF TIME STEP   42, STRESS PERIOD    2
1
  VOLUMETRIC BUDGET FOR ENTIRE MODEL AT END OF TIME STEP   42, STRESS PERIOD   2
  ------------------------------------------------------------------------------

     CUMULATIVE VOLUMES      L**3       RATES FOR THIS TIME STEP      L**3/T
     ------------------                 ------------------------

           IN:                                      IN:
           ---                                      ---
             STORAGE =       24842.5879               STORAGE =          18.3558
       CONSTANT HEAD =           0.0000         CONSTANT HEAD =           0.0000
               WELLS =           0.0000                 WELLS =           0.0000
     HEAD DEP BOUNDS =       15934.2012       HEAD DEP BOUNDS =         545.2456

            TOTAL IN =       40776.7891              TOTAL IN =         563.6014

          OUT:                                     OUT:
          ----                                     ----
             STORAGE =           0.0000               STORAGE =           0.0000
       CONSTANT HEAD =           0.0000         CONSTANT HEAD =           0.0000
               WELLS =           0.0000                 WELLS =           0.0000
     HEAD DEP BOUNDS =       40776.7891       HEAD DEP BOUNDS =         563.6048

           TOTAL OUT =       40776.7891             TOTAL OUT =         563.6048

            IN - OUT =           0.0000              IN - OUT =      -3.3569E-03

 PERCENT DISCREPANCY =           0.00     PERCENT DISCREPANCY =          -0.00






         TIME SUMMARY AT END OF TIME STEP   42 IN STRESS PERIOD    2
                    SECONDS     MINUTES      HOURS       DAYS        YEARS
                    -----------------------------------------------------------
   TIME STEP LENGTH  86400.      1440.0      24.000      1.0000     2.73785E-03
 STRESS PERIOD TIME 3.62880E+06  60480.      1008.0      42.000     0.11499    
         TOTAL TIME 3.71520E+06  61920.      1032.0      43.000     0.11773    
1

 SOLVING FOR HEAD 

 OUTPUT CONTROL FOR STRESS PERIOD    2   TIME STEP   43
    SAVE HEAD FOR ALL LAYERS
    SAVE DRAWDOWN FOR ALL LAYERS
    SAVE BUDGET
    PRINT HEAD FOR ALL LAYERS
    PRINT BUDGET
 UBDSV1 SAVING "         STORAGE" ON UNIT  53 AT TIME STEP 43, STRESS PERIOD   2
 UBDSV2 SAVING "   CONSTANT HEAD" ON UNIT  53 AT TIME STEP 43, STRESS PERIOD   2
 UBDSV1 SAVING "FLOW RIGHT FACE " ON UNIT  53 AT TIME STEP 43, STRESS PERIOD   2
 UBDSV1 SAVING "FLOW FRONT FACE " ON UNIT  53 AT TIME STEP 43, STRESS PERIOD   2
1
              HEAD IN LAYER   1 AT END OF TIME STEP  43 IN STRESS PERIOD    2
  ---------------------------------------------------------------------------

            1           2           3           4           5           6           7           8           9          10
 ........................................................................................................................
   1    9.991       8.898       7.804       6.706       5.603       4.494       3.379       2.260       1.136      1.1252E-02
   2    9.991       8.898       7.804       6.706       5.603       4.494       3.379       2.260       1.136      1.1252E-02
   3    9.991       8.898       7.804       6.706       5.603       4.494       3.379       2.260       1.136      1.1252E-02
   4    9.991       8.898       7.804       6.706       5.603       4.494       3.379       2.260       1.136      1.1252E-02
   5    9.991       8.898       7.804       6.706       5.603       4.494       3.379       2.260       1.136      1.1252E-02
   6    9.991       8.898       7.804       6.706       5.603       4.494       3.379       2.260       1.136      1.1252E-02
   7    9.991       8.898       7.804       6.706       5.603       4.494       3.379       2.260       1.136      1.1252E-02
   8    9.991       8.898       7.804       6.706       5.603       4.494       3.379       2.260       1.136      1.1252E-02
   9    9.991       8.898       7.804       6.706       5.603       4.494       3.379       2.260       1.136      1.1252E-02
  10    9.991       8.898       7.804       6.706       5.603       4.494       3.379       2.260       1.136      1.1252E-02

 HEAD WILL BE SAVED ON UNIT   51 AT END OF TIME STEP   43, STRESS PERIOD    2

 DRAWDOWN WILL BE SAVED ON UNIT   52 AT END OF TIME STEP   43, STRESS PERIOD    2
1
  VOLUMETRIC BUDGET FOR ENTIRE MODEL AT END OF TIME STEP   43, STRESS PERIOD   2
  ------------------------------------------------------------------------------

     CUMULATIVE VOLUMES      L**3       RATES FOR THIS TIME STEP      L**3/T
     ------------------                 ------------------------

           IN:                                      IN:
           ---                                      ---
             STORAGE =       24858.9746               STORAGE =          16.3873
       CONSTANT HEAD =           0.0000         CONSTANT HEAD =           0.0000
               WELLS =           0.0000                 WELLS =           0.0000
     HEAD DEP BOUNDS =       16480.4219       HEAD DEP BOUNDS =         546.2208

            TOTAL IN =       41339.3984              TOTAL IN =         562.6080

          OUT:                                     OUT:
          ----                                     ----
             STORAGE =           0.0000               STORAGE =           0.0000
       CONSTANT HEAD =           0.0000         CONSTANT HEAD =           0.0000
               WELLS =           0.0000                 WELLS =           0.0000
     HEAD DEP BOUNDS =       41339.4102       HEAD DEP BOUNDS =         562.6204

           TOTAL OUT =       41339.4102             TOTAL OUT =         562.6204

            IN - OUT =      -1.1719E-02              IN - OUT =      -1.2329E-02

 PERCENT DISCREPANCY =          -0.00     PERCENT DISCREPANCY =          -0.00






         TIME SUMMARY AT END OF TIME STEP   43 IN STRESS PERIOD    2
                    SECONDS     MINUTES      HOURS       DAYS        YEARS
                    -----------------------------------------------------------
   TIME STEP LENGTH  86400.      1440.0      24.000      1.0000     2.73785E-03
 STRESS PERIOD TIME 3.71520E+06  61920.      1032.0      43.000     0.11773    
         TOTAL TIME 3.80160E+06  63360.      1056.0      44.000     0.12047    
1

 SOLVING FOR HEAD 

 OUTPUT CONTROL FOR STRESS PERIOD    2   TIME STEP   44
    SAVE HEAD FOR ALL LAYERS
    SAVE DRAWDOWN FOR ALL LAYERS
    SAVE BUDGET
    PRINT HEAD FOR ALL LAYERS
    PRINT BUDGET
 UBDSV1 SAVING "         STORAGE" ON UNIT  53 AT TIME STEP 44, STRESS PERIOD   2
 UBDSV2 SAVING "   CONSTANT HEAD" ON UNIT  53 AT TIME STEP 44, STRESS PERIOD   2
 UBDSV1 SAVING "FLOW RIGHT FACE " ON UNIT  53 AT TIME STEP 44, STRESS PERIOD   2
 UBDSV1 SAVING "FLOW FRONT FACE " ON UNIT  53 AT TIME STEP 44, STRESS PERIOD   2
1
              HEAD IN LAYER   1 AT END OF TIME STEP  44 IN STRESS PERIOD    2
  ---------------------------------------------------------------------------

            1           2           3           4           5           6           7           8           9          10
 ........................................................................................................................
   1    9.991       8.897       7.801       6.701       5.598       4.489       3.375       2.256       1.135      1.1235E-02
   2    9.991       8.897       7.801       6.701       5.598       4.489       3.375       2.256       1.135      1.1235E-02
   3    9.991       8.897       7.801       6.701       5.598       4.489       3.375       2.256       1.135      1.1235E-02
   4    9.991       8.897       7.801       6.701       5.598       4.489       3.375       2.256       1.135      1.1235E-02
   5    9.991       8.897       7.801       6.701       5.598       4.489       3.375       2.256       1.135      1.1235E-02
   6    9.991       8.897       7.801       6.701       5.598       4.489       3.375       2.256       1.135      1.1235E-02
   7    9.991       8.897       7.801       6.701       5.598       4.489       3.375       2.256       1.135      1.1235E-02
   8    9.991       8.897       7.801       6.701       5.598       4.489       3.375       2.256       1.135      1.1235E-02
   9    9.991       8.897       7.801       6.701       5.598       4.489       3.375       2.256       1.135      1.1235E-02
  10    9.991       8.897       7.801       6.701       5.598       4.489       3.375       2.256       1.135      1.1235E-02

 HEAD WILL BE SAVED ON UNIT   51 AT END OF TIME STEP   44, STRESS PERIOD    2

 DRAWDOWN WILL BE SAVED ON UNIT   52 AT END OF TIME STEP   44, STRESS PERIOD    2
1
  VOLUMETRIC BUDGET FOR ENTIRE MODEL AT END OF TIME STEP   44, STRESS PERIOD   2
  ------------------------------------------------------------------------------

     CUMULATIVE VOLUMES      L**3       RATES FOR THIS TIME STEP      L**3/T
     ------------------                 ------------------------

           IN:                                      IN:
           ---                                      ---
             STORAGE =       24873.6055               STORAGE =          14.6302
       CONSTANT HEAD =           0.0000         CONSTANT HEAD =           0.0000
               WELLS =           0.0000                 WELLS =           0.0000
     HEAD DEP BOUNDS =       17027.5508       HEAD DEP BOUNDS =         547.1298

            TOTAL IN =       41901.1562              TOTAL IN =         561.7601

          OUT:                                     OUT:
          ----                                     ----
             STORAGE =           0.0000               STORAGE =           0.0000
       CONSTANT HEAD =           0.0000         CONSTANT HEAD =           0.0000
               WELLS =           0.0000                 WELLS =           0.0000
     HEAD DEP BOUNDS =       41901.1523       HEAD DEP BOUNDS =         561.7415

           TOTAL OUT =       41901.1523             TOTAL OUT =         561.7415

            IN - OUT =       3.9062E-03              IN - OUT =       1.8616E-02

 PERCENT DISCREPANCY =           0.00     PERCENT DISCREPANCY =           0.00






         TIME SUMMARY AT END OF TIME STEP   44 IN STRESS PERIOD    2
                    SECONDS     MINUTES      HOURS       DAYS        YEARS
                    -----------------------------------------------------------
   TIME STEP LENGTH  86400.      1440.0      24.000      1.0000     2.73785E-03
 STRESS PERIOD TIME 3.80160E+06  63360.      1056.0      44.000     0.12047    
         TOTAL TIME 3.88800E+06  64800.      1080.0      45.000     0.12320    
1

 SOLVING FOR HEAD 

 OUTPUT CONTROL FOR STRESS PERIOD    2   TIME STEP   45
    SAVE HEAD FOR ALL LAYERS
    SAVE DRAWDOWN FOR ALL LAYERS
    SAVE BUDGET
    PRINT HEAD FOR ALL LAYERS
    PRINT BUDGET
 UBDSV1 SAVING "         STORAGE" ON UNIT  53 AT TIME STEP 45, STRESS PERIOD   2
 UBDSV2 SAVING "   CONSTANT HEAD" ON UNIT  53 AT TIME STEP 45, STRESS PERIOD   2
 UBDSV1 SAVING "FLOW RIGHT FACE " ON UNIT  53 AT TIME STEP 45, STRESS PERIOD   2
 UBDSV1 SAVING "FLOW FRONT FACE " ON UNIT  53 AT TIME STEP 45, STRESS PERIOD   2
1
              HEAD IN LAYER   1 AT END OF TIME STEP  45 IN STRESS PERIOD    2
  ---------------------------------------------------------------------------

            1           2           3           4           5           6           7           8           9          10
 ........................................................................................................................
   1    9.991       8.895       7.798       6.697       5.593       4.484       3.371       2.253       1.133      1.1219E-02
   2    9.991       8.895       7.798       6.697       5.593       4.484       3.371       2.253       1.133      1.1219E-02
   3    9.991       8.895       7.798       6.697       5.593       4.484       3.371       2.253       1.133      1.1219E-02
   4    9.991       8.895       7.798       6.697       5.593       4.484       3.371       2.253       1.133      1.1219E-02
   5    9.991       8.895       7.798       6.697       5.593       4.484       3.371       2.253       1.133      1.1219E-02
   6    9.991       8.895       7.798       6.697       5.593       4.484       3.371       2.253       1.133      1.1219E-02
   7    9.991       8.895       7.798       6.697       5.593       4.484       3.371       2.253       1.133      1.1219E-02
   8    9.991       8.895       7.798       6.697       5.593       4.484       3.371       2.253       1.133      1.1219E-02
   9    9.991       8.895       7.798       6.697       5.593       4.484       3.371       2.253       1.133      1.1219E-02
  10    9.991       8.895       7.798       6.697       5.593       4.484       3.371       2.253       1.133      1.1219E-02

 HEAD WILL BE SAVED ON UNIT   51 AT END OF TIME STEP   45, STRESS PERIOD    2

 DRAWDOWN WILL BE SAVED ON UNIT   52 AT END OF TIME STEP   45, STRESS PERIOD    2
1
  VOLUMETRIC BUDGET FOR ENTIRE MODEL AT END OF TIME STEP   45, STRESS PERIOD   2
  ------------------------------------------------------------------------------

     CUMULATIVE VOLUMES      L**3       RATES FOR THIS TIME STEP      L**3/T
     ------------------                 ------------------------

           IN:                                      IN:
           ---                                      ---
             STORAGE =       24886.6660               STORAGE =          13.0607
       CONSTANT HEAD =           0.0000         CONSTANT HEAD =           0.0000
               WELLS =           0.0000                 WELLS =           0.0000
     HEAD DEP BOUNDS =       17575.4570       HEAD DEP BOUNDS =         547.9071

            TOTAL IN =       42462.1250              TOTAL IN =         560.9678

          OUT:                                     OUT:
          ----                                     ----
             STORAGE =           0.0000               STORAGE =           0.0000
       CONSTANT HEAD =           0.0000         CONSTANT HEAD =           0.0000
               WELLS =           0.0000                 WELLS =           0.0000
     HEAD DEP BOUNDS =       42462.1094       HEAD DEP BOUNDS =         560.9568

           TOTAL OUT =       42462.1094             TOTAL OUT =         560.9568

            IN - OUT =       1.5625E-02              IN - OUT =       1.0986E-02

 PERCENT DISCREPANCY =           0.00     PERCENT DISCREPANCY =           0.00






         TIME SUMMARY AT END OF TIME STEP   45 IN STRESS PERIOD    2
                    SECONDS     MINUTES      HOURS       DAYS        YEARS
                    -----------------------------------------------------------
   TIME STEP LENGTH  86400.      1440.0      24.000      1.0000     2.73785E-03
 STRESS PERIOD TIME 3.88800E+06  64800.      1080.0      45.000     0.12320    
         TOTAL TIME 3.97440E+06  66240.      1104.0      46.000     0.12594    
1

 SOLVING FOR HEAD 

 OUTPUT CONTROL FOR STRESS PERIOD    2   TIME STEP   46
    SAVE HEAD FOR ALL LAYERS
    SAVE DRAWDOWN FOR ALL LAYERS
    SAVE BUDGET
    PRINT HEAD FOR ALL LAYERS
    PRINT BUDGET
 UBDSV1 SAVING "         STORAGE" ON UNIT  53 AT TIME STEP 46, STRESS PERIOD   2
 UBDSV2 SAVING "   CONSTANT HEAD" ON UNIT  53 AT TIME STEP 46, STRESS PERIOD   2
 UBDSV1 SAVING "FLOW RIGHT FACE " ON UNIT  53 AT TIME STEP 46, STRESS PERIOD   2
 UBDSV1 SAVING "FLOW FRONT FACE " ON UNIT  53 AT TIME STEP 46, STRESS PERIOD   2
1
              HEAD IN LAYER   1 AT END OF TIME STEP  46 IN STRESS PERIOD    2
  ---------------------------------------------------------------------------

            1           2           3           4           5           6           7           8           9          10
 ........................................................................................................................
   1    9.991       8.894       7.795       6.694       5.589       4.480       3.367       2.251       1.132      1.1205E-02
   2    9.991       8.894       7.795       6.694       5.589       4.480       3.367       2.251       1.132      1.1205E-02
   3    9.991       8.894       7.795       6.694       5.589       4.480       3.367       2.251       1.132      1.1205E-02
   4    9.991       8.894       7.795       6.694       5.589       4.480       3.367       2.251       1.132      1.1205E-02
   5    9.991       8.894       7.795       6.694       5.589       4.480       3.367       2.251       1.132      1.1205E-02
   6    9.991       8.894       7.795       6.694       5.589       4.480       3.367       2.251       1.132      1.1205E-02
   7    9.991       8.894       7.795       6.694       5.589       4.480       3.367       2.251       1.132      1.1205E-02
   8    9.991       8.894       7.795       6.694       5.589       4.480       3.367       2.251       1.132      1.1205E-02
   9    9.991       8.894       7.795       6.694       5.589       4.480       3.367       2.251       1.132      1.1205E-02
  10    9.991       8.894       7.795       6.694       5.589       4.480       3.367       2.251       1.132      1.1205E-02

 HEAD WILL BE SAVED ON UNIT   51 AT END OF TIME STEP   46, STRESS PERIOD    2

 DRAWDOWN WILL BE SAVED ON UNIT   52 AT END OF TIME STEP   46, STRESS PERIOD    2
1
  VOLUMETRIC BUDGET FOR ENTIRE MODEL AT END OF TIME STEP   46, STRESS PERIOD   2
  ------------------------------------------------------------------------------

     CUMULATIVE VOLUMES      L**3       RATES FOR THIS TIME STEP      L**3/T
     ------------------                 ------------------------

           IN:                                      IN:
           ---                                      ---
             STORAGE =       24898.3262               STORAGE =          11.6599
       CONSTANT HEAD =           0.0000         CONSTANT HEAD =           0.0000
               WELLS =           0.0000                 WELLS =           0.0000
     HEAD DEP BOUNDS =       18124.0586       HEAD DEP BOUNDS =         548.6011

            TOTAL IN =       43022.3828              TOTAL IN =         560.2610

          OUT:                                     OUT:
          ----                                     ----
             STORAGE =           0.0000               STORAGE =           0.0000
       CONSTANT HEAD =           0.0000         CONSTANT HEAD =           0.0000
               WELLS =           0.0000                 WELLS =           0.0000
     HEAD DEP BOUNDS =       43022.3672       HEAD DEP BOUNDS =         560.2563

           TOTAL OUT =       43022.3672             TOTAL OUT =         560.2563

            IN - OUT =       1.5625E-02              IN - OUT =       4.6387E-03

 PERCENT DISCREPANCY =           0.00     PERCENT DISCREPANCY =           0.00






         TIME SUMMARY AT END OF TIME STEP   46 IN STRESS PERIOD    2
                    SECONDS     MINUTES      HOURS       DAYS        YEARS
                    -----------------------------------------------------------
   TIME STEP LENGTH  86400.      1440.0      24.000      1.0000     2.73785E-03
 STRESS PERIOD TIME 3.97440E+06  66240.      1104.0      46.000     0.12594    
         TOTAL TIME 4.06080E+06  67680.      1128.0      47.000     0.12868    
1

 SOLVING FOR HEAD 

 OUTPUT CONTROL FOR STRESS PERIOD    2   TIME STEP   47
    SAVE HEAD FOR ALL LAYERS
    SAVE DRAWDOWN FOR ALL LAYERS
    SAVE BUDGET
    PRINT HEAD FOR ALL LAYERS
    PRINT BUDGET
 UBDSV1 SAVING "         STORAGE" ON UNIT  53 AT TIME STEP 47, STRESS PERIOD   2
 UBDSV2 SAVING "   CONSTANT HEAD" ON UNIT  53 AT TIME STEP 47, STRESS PERIOD   2
 UBDSV1 SAVING "FLOW RIGHT FACE " ON UNIT  53 AT TIME STEP 47, STRESS PERIOD   2
 UBDSV1 SAVING "FLOW FRONT FACE " ON UNIT  53 AT TIME STEP 47, STRESS PERIOD   2
1
              HEAD IN LAYER   1 AT END OF TIME STEP  47 IN STRESS PERIOD    2
  ---------------------------------------------------------------------------

            1           2           3           4           5           6           7           8           9          10
 ........................................................................................................................
   1    9.991       8.892       7.793       6.691       5.585       4.477       3.364       2.248       1.130      1.1193E-02
   2    9.991       8.892       7.793       6.691       5.585       4.477       3.364       2.248       1.130      1.1193E-02
   3    9.991       8.892       7.793       6.691       5.585       4.477       3.364       2.248       1.130      1.1193E-02
   4    9.991       8.892       7.793       6.691       5.585       4.477       3.364       2.248       1.130      1.1193E-02
   5    9.991       8.892       7.793       6.691       5.585       4.477       3.364       2.248       1.130      1.1193E-02
   6    9.991       8.892       7.793       6.691       5.585       4.477       3.364       2.248       1.130      1.1193E-02
   7    9.991       8.892       7.793       6.691       5.585       4.477       3.364       2.248       1.130      1.1193E-02
   8    9.991       8.892       7.793       6.691       5.585       4.477       3.364       2.248       1.130      1.1193E-02
   9    9.991       8.892       7.793       6.691       5.585       4.477       3.364       2.248       1.130      1.1193E-02
  10    9.991       8.892       7.793       6.691       5.585       4.477       3.364       2.248       1.130      1.1193E-02

 HEAD WILL BE SAVED ON UNIT   51 AT END OF TIME STEP   47, STRESS PERIOD    2

 DRAWDOWN WILL BE SAVED ON UNIT   52 AT END OF TIME STEP   47, STRESS PERIOD    2
1
  VOLUMETRIC BUDGET FOR ENTIRE MODEL AT END OF TIME STEP   47, STRESS PERIOD   2
  ------------------------------------------------------------------------------

     CUMULATIVE VOLUMES      L**3       RATES FOR THIS TIME STEP      L**3/T
     ------------------                 ------------------------

           IN:                                      IN:
           ---                                      ---
             STORAGE =       24908.7363               STORAGE =          10.4095
       CONSTANT HEAD =           0.0000         CONSTANT HEAD =           0.0000
               WELLS =           0.0000                 WELLS =           0.0000
     HEAD DEP BOUNDS =       18673.2793       HEAD DEP BOUNDS =         549.2206

            TOTAL IN =       43582.0156              TOTAL IN =         559.6301

          OUT:                                     OUT:
          ----                                     ----
             STORAGE =           0.0000               STORAGE =           0.0000
       CONSTANT HEAD =           0.0000         CONSTANT HEAD =           0.0000
               WELLS =           0.0000                 WELLS =           0.0000
     HEAD DEP BOUNDS =       43582.0000       HEAD DEP BOUNDS =         559.6310

           TOTAL OUT =       43582.0000             TOTAL OUT =         559.6310

            IN - OUT =       1.5625E-02              IN - OUT =      -9.7656E-04

 PERCENT DISCREPANCY =           0.00     PERCENT DISCREPANCY =          -0.00






         TIME SUMMARY AT END OF TIME STEP   47 IN STRESS PERIOD    2
                    SECONDS     MINUTES      HOURS       DAYS        YEARS
                    -----------------------------------------------------------
   TIME STEP LENGTH  86400.      1440.0      24.000      1.0000     2.73785E-03
 STRESS PERIOD TIME 4.06080E+06  67680.      1128.0      47.000     0.12868    
         TOTAL TIME 4.14720E+06  69120.      1152.0      48.000     0.13142    
1

 SOLVING FOR HEAD 

 OUTPUT CONTROL FOR STRESS PERIOD    2   TIME STEP   48
    SAVE HEAD FOR ALL LAYERS
    SAVE DRAWDOWN FOR ALL LAYERS
    SAVE BUDGET
    PRINT HEAD FOR ALL LAYERS
    PRINT BUDGET
 UBDSV1 SAVING "         STORAGE" ON UNIT  53 AT TIME STEP 48, STRESS PERIOD   2
 UBDSV2 SAVING "   CONSTANT HEAD" ON UNIT  53 AT TIME STEP 48, STRESS PERIOD   2
 UBDSV1 SAVING "FLOW RIGHT FACE " ON UNIT  53 AT TIME STEP 48, STRESS PERIOD   2
 UBDSV1 SAVING "FLOW FRONT FACE " ON UNIT  53 AT TIME STEP 48, STRESS PERIOD   2
1
              HEAD IN LAYER   1 AT END OF TIME STEP  48 IN STRESS PERIOD    2
  ---------------------------------------------------------------------------

            1           2           3           4           5           6           7           8           9          10
 ........................................................................................................................
   1    9.991       8.891       7.791       6.688       5.582       4.473       3.361       2.246       1.129      1.1181E-02
   2    9.991       8.891       7.791       6.688       5.582       4.473       3.361       2.246       1.129      1.1181E-02
   3    9.991       8.891       7.791       6.688       5.582       4.473       3.361       2.246       1.129      1.1181E-02
   4    9.991       8.891       7.791       6.688       5.582       4.473       3.361       2.246       1.129      1.1181E-02
   5    9.991       8.891       7.791       6.688       5.582       4.473       3.361       2.246       1.129      1.1181E-02
   6    9.991       8.891       7.791       6.688       5.582       4.473       3.361       2.246       1.129      1.1181E-02
   7    9.991       8.891       7.791       6.688       5.582       4.473       3.361       2.246       1.129      1.1181E-02
   8    9.991       8.891       7.791       6.688       5.582       4.473       3.361       2.246       1.129      1.1181E-02
   9    9.991       8.891       7.791       6.688       5.582       4.473       3.361       2.246       1.129      1.1181E-02
  10    9.991       8.891       7.791       6.688       5.582       4.473       3.361       2.246       1.129      1.1181E-02

 HEAD WILL BE SAVED ON UNIT   51 AT END OF TIME STEP   48, STRESS PERIOD    2

 DRAWDOWN WILL BE SAVED ON UNIT   52 AT END OF TIME STEP   48, STRESS PERIOD    2
1
  VOLUMETRIC BUDGET FOR ENTIRE MODEL AT END OF TIME STEP   48, STRESS PERIOD   2
  ------------------------------------------------------------------------------

     CUMULATIVE VOLUMES      L**3       RATES FOR THIS TIME STEP      L**3/T
     ------------------                 ------------------------

           IN:                                      IN:
           ---                                      ---
             STORAGE =       24918.0293               STORAGE =           9.2926
       CONSTANT HEAD =           0.0000         CONSTANT HEAD =           0.0000
               WELLS =           0.0000                 WELLS =           0.0000
     HEAD DEP BOUNDS =       19223.0527       HEAD DEP BOUNDS =         549.7736

            TOTAL IN =       44141.0820              TOTAL IN =         559.0662

          OUT:                                     OUT:
          ----                                     ----
             STORAGE =           0.0000               STORAGE =           0.0000
       CONSTANT HEAD =           0.0000         CONSTANT HEAD =           0.0000
               WELLS =           0.0000                 WELLS =           0.0000
     HEAD DEP BOUNDS =       44141.0742       HEAD DEP BOUNDS =         559.0728

           TOTAL OUT =       44141.0742             TOTAL OUT =         559.0728

            IN - OUT =       7.8125E-03              IN - OUT =      -6.5918E-03

 PERCENT DISCREPANCY =           0.00     PERCENT DISCREPANCY =          -0.00






         TIME SUMMARY AT END OF TIME STEP   48 IN STRESS PERIOD    2
                    SECONDS     MINUTES      HOURS       DAYS        YEARS
                    -----------------------------------------------------------
   TIME STEP LENGTH  86400.      1440.0      24.000      1.0000     2.73785E-03
 STRESS PERIOD TIME 4.14720E+06  69120.      1152.0      48.000     0.13142    
         TOTAL TIME 4.23360E+06  70560.      1176.0      49.000     0.13415    
1

 SOLVING FOR HEAD 

 OUTPUT CONTROL FOR STRESS PERIOD    2   TIME STEP   49
    SAVE HEAD FOR ALL LAYERS
    SAVE DRAWDOWN FOR ALL LAYERS
    SAVE BUDGET
    PRINT HEAD FOR ALL LAYERS
    PRINT BUDGET
 UBDSV1 SAVING "         STORAGE" ON UNIT  53 AT TIME STEP 49, STRESS PERIOD   2
 UBDSV2 SAVING "   CONSTANT HEAD" ON UNIT  53 AT TIME STEP 49, STRESS PERIOD   2
 UBDSV1 SAVING "FLOW RIGHT FACE " ON UNIT  53 AT TIME STEP 49, STRESS PERIOD   2
 UBDSV1 SAVING "FLOW FRONT FACE " ON UNIT  53 AT TIME STEP 49, STRESS PERIOD   2
1
              HEAD IN LAYER   1 AT END OF TIME STEP  49 IN STRESS PERIOD    2
  ---------------------------------------------------------------------------

            1           2           3           4           5           6           7           8           9          10
 ........................................................................................................................
   1    9.991       8.890       7.789       6.685       5.579       4.470       3.359       2.244       1.128      1.1171E-02
   2    9.991       8.890       7.789       6.685       5.579       4.470       3.359       2.244       1.128      1.1171E-02
   3    9.991       8.890       7.789       6.685       5.579       4.470       3.359       2.244       1.128      1.1171E-02
   4    9.991       8.890       7.789       6.685       5.579       4.470       3.359       2.244       1.128      1.1171E-02
   5    9.991       8.890       7.789       6.685       5.579       4.470       3.359       2.244       1.128      1.1171E-02
   6    9.991       8.890       7.789       6.685       5.579       4.470       3.359       2.244       1.128      1.1171E-02
   7    9.991       8.890       7.789       6.685       5.579       4.470       3.359       2.244       1.128      1.1171E-02
   8    9.991       8.890       7.789       6.685       5.579       4.470       3.359       2.244       1.128      1.1171E-02
   9    9.991       8.890       7.789       6.685       5.579       4.470       3.359       2.244       1.128      1.1171E-02
  10    9.991       8.890       7.789       6.685       5.579       4.470       3.359       2.244       1.128      1.1171E-02

 HEAD WILL BE SAVED ON UNIT   51 AT END OF TIME STEP   49, STRESS PERIOD    2

 DRAWDOWN WILL BE SAVED ON UNIT   52 AT END OF TIME STEP   49, STRESS PERIOD    2
1
  VOLUMETRIC BUDGET FOR ENTIRE MODEL AT END OF TIME STEP   49, STRESS PERIOD   2
  ------------------------------------------------------------------------------

     CUMULATIVE VOLUMES      L**3       RATES FOR THIS TIME STEP      L**3/T
     ------------------                 ------------------------

           IN:                                      IN:
           ---                                      ---
             STORAGE =       24926.3262               STORAGE =           8.2962
       CONSTANT HEAD =           0.0000         CONSTANT HEAD =           0.0000
               WELLS =           0.0000                 WELLS =           0.0000
     HEAD DEP BOUNDS =       19773.3203       HEAD DEP BOUNDS =         550.2673

            TOTAL IN =       44699.6484              TOTAL IN =         558.5635

          OUT:                                     OUT:
          ----                                     ----
             STORAGE =           0.0000               STORAGE =           0.0000
       CONSTANT HEAD =           0.0000         CONSTANT HEAD =           0.0000
               WELLS =           0.0000                 WELLS =           0.0000
     HEAD DEP BOUNDS =       44699.6484       HEAD DEP BOUNDS =         558.5744

           TOTAL OUT =       44699.6484             TOTAL OUT =         558.5744

            IN - OUT =           0.0000              IN - OUT =      -1.0925E-02

 PERCENT DISCREPANCY =           0.00     PERCENT DISCREPANCY =          -0.00






         TIME SUMMARY AT END OF TIME STEP   49 IN STRESS PERIOD    2
                    SECONDS     MINUTES      HOURS       DAYS        YEARS
                    -----------------------------------------------------------
   TIME STEP LENGTH  86400.      1440.0      24.000      1.0000     2.73785E-03
 STRESS PERIOD TIME 4.23360E+06  70560.      1176.0      49.000     0.13415    
         TOTAL TIME 4.32000E+06  72000.      1200.0      50.000     0.13689    
1

 SOLVING FOR HEAD 

 OUTPUT CONTROL FOR STRESS PERIOD    2   TIME STEP   50
    SAVE HEAD FOR ALL LAYERS
    SAVE DRAWDOWN FOR ALL LAYERS
    SAVE BUDGET
    PRINT HEAD FOR ALL LAYERS
    PRINT BUDGET
 UBDSV1 SAVING "         STORAGE" ON UNIT  53 AT TIME STEP 50, STRESS PERIOD   2
 UBDSV2 SAVING "   CONSTANT HEAD" ON UNIT  53 AT TIME STEP 50, STRESS PERIOD   2
 UBDSV1 SAVING "FLOW RIGHT FACE " ON UNIT  53 AT TIME STEP 50, STRESS PERIOD   2
 UBDSV1 SAVING "FLOW FRONT FACE " ON UNIT  53 AT TIME STEP 50, STRESS PERIOD   2
1
              HEAD IN LAYER   1 AT END OF TIME STEP  50 IN STRESS PERIOD    2
  ---------------------------------------------------------------------------

            1           2           3           4           5           6           7           8           9          10
 ........................................................................................................................
   1    9.991       8.889       7.787       6.683       5.577       4.468       3.356       2.243       1.127      1.1163E-02
   2    9.991       8.889       7.787       6.683       5.577       4.468       3.356       2.243       1.127      1.1163E-02
   3    9.991       8.889       7.787       6.683       5.577       4.468       3.356       2.243       1.127      1.1163E-02
   4    9.991       8.889       7.787       6.683       5.577       4.468       3.356       2.243       1.127      1.1163E-02
   5    9.991       8.889       7.787       6.683       5.577       4.468       3.356       2.243       1.127      1.1163E-02
   6    9.991       8.889       7.787       6.683       5.577       4.468       3.356       2.243       1.127      1.1163E-02
   7    9.991       8.889       7.787       6.683       5.577       4.468       3.356       2.243       1.127      1.1163E-02
   8    9.991       8.889       7.787       6.683       5.577       4.468       3.356       2.243       1.127      1.1163E-02
   9    9.991       8.889       7.787       6.683       5.577       4.468       3.356       2.243       1.127      1.1163E-02
  10    9.991       8.889       7.787       6.683       5.577       4.468       3.356       2.243       1.127      1.1163E-02

 HEAD WILL BE SAVED ON UNIT   51 AT END OF TIME STEP   50, STRESS PERIOD    2

 DRAWDOWN WILL BE SAVED ON UNIT   52 AT END OF TIME STEP   50, STRESS PERIOD    2
1
  VOLUMETRIC BUDGET FOR ENTIRE MODEL AT END OF TIME STEP   50, STRESS PERIOD   2
  ------------------------------------------------------------------------------

     CUMULATIVE VOLUMES      L**3       RATES FOR THIS TIME STEP      L**3/T
     ------------------                 ------------------------

           IN:                                      IN:
           ---                                      ---
             STORAGE =       24933.7324               STORAGE =           7.4060
       CONSTANT HEAD =           0.0000         CONSTANT HEAD =           0.0000
               WELLS =           0.0000                 WELLS =           0.0000
     HEAD DEP BOUNDS =       20324.0293       HEAD DEP BOUNDS =         550.7081

            TOTAL IN =       45257.7617              TOTAL IN =         558.1140

          OUT:                                     OUT:
          ----                                     ----
             STORAGE =           0.0000               STORAGE =           0.0000
       CONSTANT HEAD =           0.0000         CONSTANT HEAD =           0.0000
               WELLS =           0.0000                 WELLS =           0.0000
     HEAD DEP BOUNDS =       45257.7773       HEAD DEP BOUNDS =         558.1295

           TOTAL OUT =       45257.7773             TOTAL OUT =         558.1295

            IN - OUT =      -1.5625E-02              IN - OUT =      -1.5503E-02

 PERCENT DISCREPANCY =          -0.00     PERCENT DISCREPANCY =          -0.00






         TIME SUMMARY AT END OF TIME STEP   50 IN STRESS PERIOD    2
                    SECONDS     MINUTES      HOURS       DAYS        YEARS
                    -----------------------------------------------------------
   TIME STEP LENGTH  86400.      1440.0      24.000      1.0000     2.73785E-03
 STRESS PERIOD TIME 4.32000E+06  72000.      1200.0      50.000     0.13689    
         TOTAL TIME 4.40640E+06  73440.      1224.0      51.000     0.13963    
1

 SOLVING FOR HEAD 

 OUTPUT CONTROL FOR STRESS PERIOD    2   TIME STEP   51
    SAVE HEAD FOR ALL LAYERS
    SAVE DRAWDOWN FOR ALL LAYERS
    SAVE BUDGET
    PRINT HEAD FOR ALL LAYERS
    PRINT BUDGET
 UBDSV1 SAVING "         STORAGE" ON UNIT  53 AT TIME STEP 51, STRESS PERIOD   2
 UBDSV2 SAVING "   CONSTANT HEAD" ON UNIT  53 AT TIME STEP 51, STRESS PERIOD   2
 UBDSV1 SAVING "FLOW RIGHT FACE " ON UNIT  53 AT TIME STEP 51, STRESS PERIOD   2
 UBDSV1 SAVING "FLOW FRONT FACE " ON UNIT  53 AT TIME STEP 51, STRESS PERIOD   2
1
              HEAD IN LAYER   1 AT END OF TIME STEP  51 IN STRESS PERIOD    2
  ---------------------------------------------------------------------------

            1           2           3           4           5           6           7           8           9          10
 ........................................................................................................................
   1    9.991       8.889       7.786       6.681       5.574       4.466       3.354       2.241       1.127      1.1155E-02
   2    9.991       8.889       7.786       6.681       5.574       4.466       3.354       2.241       1.127      1.1155E-02
   3    9.991       8.889       7.786       6.681       5.574       4.466       3.354       2.241       1.127      1.1155E-02
   4    9.991       8.889       7.786       6.681       5.574       4.466       3.354       2.241       1.127      1.1155E-02
   5    9.991       8.889       7.786       6.681       5.574       4.466       3.354       2.241       1.127      1.1155E-02
   6    9.991       8.889       7.786       6.681       5.574       4.466       3.354       2.241       1.127      1.1155E-02
   7    9.991       8.889       7.786       6.681       5.574       4.466       3.354       2.241       1.127      1.1155E-02
   8    9.991       8.889       7.786       6.681       5.574       4.466       3.354       2.241       1.127      1.1155E-02
   9    9.991       8.889       7.786       6.681       5.574       4.466       3.354       2.241       1.127      1.1155E-02
  10    9.991       8.889       7.786       6.681       5.574       4.466       3.354       2.241       1.127      1.1155E-02

 HEAD WILL BE SAVED ON UNIT   51 AT END OF TIME STEP   51, STRESS PERIOD    2

 DRAWDOWN WILL BE SAVED ON UNIT   52 AT END OF TIME STEP   51, STRESS PERIOD    2
1
  VOLUMETRIC BUDGET FOR ENTIRE MODEL AT END OF TIME STEP   51, STRESS PERIOD   2
  ------------------------------------------------------------------------------

     CUMULATIVE VOLUMES      L**3       RATES FOR THIS TIME STEP      L**3/T
     ------------------                 ------------------------

           IN:                                      IN:
           ---                                      ---
             STORAGE =       24940.3438               STORAGE =           6.6115
       CONSTANT HEAD =           0.0000         CONSTANT HEAD =           0.0000
               WELLS =           0.0000                 WELLS =           0.0000
     HEAD DEP BOUNDS =       20875.1309       HEAD DEP BOUNDS =         551.1014

            TOTAL IN =       45815.4766              TOTAL IN =         557.7130

          OUT:                                     OUT:
          ----                                     ----
             STORAGE =           0.0000               STORAGE =           0.0000
       CONSTANT HEAD =           0.0000         CONSTANT HEAD =           0.0000
               WELLS =           0.0000                 WELLS =           0.0000
     HEAD DEP BOUNDS =       45815.5078       HEAD DEP BOUNDS =         557.7323

           TOTAL OUT =       45815.5078             TOTAL OUT =         557.7323

            IN - OUT =      -3.1250E-02              IN - OUT =      -1.9348E-02

 PERCENT DISCREPANCY =          -0.00     PERCENT DISCREPANCY =          -0.00






         TIME SUMMARY AT END OF TIME STEP   51 IN STRESS PERIOD    2
                    SECONDS     MINUTES      HOURS       DAYS        YEARS
                    -----------------------------------------------------------
   TIME STEP LENGTH  86400.      1440.0      24.000      1.0000     2.73785E-03
 STRESS PERIOD TIME 4.40640E+06  73440.      1224.0      51.000     0.13963    
         TOTAL TIME 4.49280E+06  74880.      1248.0      52.000     0.14237    
1

 SOLVING FOR HEAD 

 OUTPUT CONTROL FOR STRESS PERIOD    2   TIME STEP   52
    SAVE HEAD FOR ALL LAYERS
    SAVE DRAWDOWN FOR ALL LAYERS
    SAVE BUDGET
    PRINT HEAD FOR ALL LAYERS
    PRINT BUDGET
 UBDSV1 SAVING "         STORAGE" ON UNIT  53 AT TIME STEP 52, STRESS PERIOD   2
 UBDSV2 SAVING "   CONSTANT HEAD" ON UNIT  53 AT TIME STEP 52, STRESS PERIOD   2
 UBDSV1 SAVING "FLOW RIGHT FACE " ON UNIT  53 AT TIME STEP 52, STRESS PERIOD   2
 UBDSV1 SAVING "FLOW FRONT FACE " ON UNIT  53 AT TIME STEP 52, STRESS PERIOD   2
1
              HEAD IN LAYER   1 AT END OF TIME STEP  52 IN STRESS PERIOD    2
  ---------------------------------------------------------------------------

            1           2           3           4           5           6           7           8           9          10
 ........................................................................................................................
   1    9.991       8.888       7.784       6.679       5.572       4.464       3.353       2.240       1.126      1.1148E-02
   2    9.991       8.888       7.784       6.679       5.572       4.464       3.353       2.240       1.126      1.1148E-02
   3    9.991       8.888       7.784       6.679       5.572       4.464       3.353       2.240       1.126      1.1148E-02
   4    9.991       8.888       7.784       6.679       5.572       4.464       3.353       2.240       1.126      1.1148E-02
   5    9.991       8.888       7.784       6.679       5.572       4.464       3.353       2.240       1.126      1.1148E-02
   6    9.991       8.888       7.784       6.679       5.572       4.464       3.353       2.240       1.126      1.1148E-02
   7    9.991       8.888       7.784       6.679       5.572       4.464       3.353       2.240       1.126      1.1148E-02
   8    9.991       8.888       7.784       6.679       5.572       4.464       3.353       2.240       1.126      1.1148E-02
   9    9.991       8.888       7.784       6.679       5.572       4.464       3.353       2.240       1.126      1.1148E-02
  10    9.991       8.888       7.784       6.679       5.572       4.464       3.353       2.240       1.126      1.1148E-02

 HEAD WILL BE SAVED ON UNIT   51 AT END OF TIME STEP   52, STRESS PERIOD    2

 DRAWDOWN WILL BE SAVED ON UNIT   52 AT END OF TIME STEP   52, STRESS PERIOD    2
1
  VOLUMETRIC BUDGET FOR ENTIRE MODEL AT END OF TIME STEP   52, STRESS PERIOD   2
  ------------------------------------------------------------------------------

     CUMULATIVE VOLUMES      L**3       RATES FOR THIS TIME STEP      L**3/T
     ------------------                 ------------------------

           IN:                                      IN:
           ---                                      ---
             STORAGE =       24946.2480               STORAGE =           5.9036
       CONSTANT HEAD =           0.0000         CONSTANT HEAD =           0.0000
               WELLS =           0.0000                 WELLS =           0.0000
     HEAD DEP BOUNDS =       21426.6230       HEAD DEP BOUNDS =         551.4913

            TOTAL IN =       46372.8711              TOTAL IN =         557.3949

          OUT:                                     OUT:
          ----                                     ----
             STORAGE =           0.0000               STORAGE =           0.0000
       CONSTANT HEAD =           0.0000         CONSTANT HEAD =           0.0000
               WELLS =           0.0000                 WELLS =           0.0000
     HEAD DEP BOUNDS =       46372.8867       HEAD DEP BOUNDS =         557.3777

           TOTAL OUT =       46372.8867             TOTAL OUT =         557.3777

            IN - OUT =      -1.5625E-02              IN - OUT =       1.7212E-02

 PERCENT DISCREPANCY =          -0.00     PERCENT DISCREPANCY =           0.00






         TIME SUMMARY AT END OF TIME STEP   52 IN STRESS PERIOD    2
                    SECONDS     MINUTES      HOURS       DAYS        YEARS
                    -----------------------------------------------------------
   TIME STEP LENGTH  86400.      1440.0      24.000      1.0000     2.73785E-03
 STRESS PERIOD TIME 4.49280E+06  74880.      1248.0      52.000     0.14237    
         TOTAL TIME 4.57920E+06  76320.      1272.0      53.000     0.14511    
1

 SOLVING FOR HEAD 

 OUTPUT CONTROL FOR STRESS PERIOD    2   TIME STEP   53
    SAVE HEAD FOR ALL LAYERS
    SAVE DRAWDOWN FOR ALL LAYERS
    SAVE BUDGET
    PRINT HEAD FOR ALL LAYERS
    PRINT BUDGET
 UBDSV1 SAVING "         STORAGE" ON UNIT  53 AT TIME STEP 53, STRESS PERIOD   2
 UBDSV2 SAVING "   CONSTANT HEAD" ON UNIT  53 AT TIME STEP 53, STRESS PERIOD   2
 UBDSV1 SAVING "FLOW RIGHT FACE " ON UNIT  53 AT TIME STEP 53, STRESS PERIOD   2
 UBDSV1 SAVING "FLOW FRONT FACE " ON UNIT  53 AT TIME STEP 53, STRESS PERIOD   2
1
              HEAD IN LAYER   1 AT END OF TIME STEP  53 IN STRESS PERIOD    2
  ---------------------------------------------------------------------------

            1           2           3           4           5           6           7           8           9          10
 ........................................................................................................................
   1    9.991       8.887       7.783       6.678       5.571       4.462       3.351       2.239       1.125      1.1141E-02
   2    9.991       8.887       7.783       6.678       5.571       4.462       3.351       2.239       1.125      1.1141E-02
   3    9.991       8.887       7.783       6.678       5.571       4.462       3.351       2.239       1.125      1.1141E-02
   4    9.991       8.887       7.783       6.678       5.571       4.462       3.351       2.239       1.125      1.1141E-02
   5    9.991       8.887       7.783       6.678       5.571       4.462       3.351       2.239       1.125      1.1141E-02
   6    9.991       8.887       7.783       6.678       5.571       4.462       3.351       2.239       1.125      1.1141E-02
   7    9.991       8.887       7.783       6.678       5.571       4.462       3.351       2.239       1.125      1.1141E-02
   8    9.991       8.887       7.783       6.678       5.571       4.462       3.351       2.239       1.125      1.1141E-02
   9    9.991       8.887       7.783       6.678       5.571       4.462       3.351       2.239       1.125      1.1141E-02
  10    9.991       8.887       7.783       6.678       5.571       4.462       3.351       2.239       1.125      1.1141E-02

 HEAD WILL BE SAVED ON UNIT   51 AT END OF TIME STEP   53, STRESS PERIOD    2

 DRAWDOWN WILL BE SAVED ON UNIT   52 AT END OF TIME STEP   53, STRESS PERIOD    2
1
  VOLUMETRIC BUDGET FOR ENTIRE MODEL AT END OF TIME STEP   53, STRESS PERIOD   2
  ------------------------------------------------------------------------------

     CUMULATIVE VOLUMES      L**3       RATES FOR THIS TIME STEP      L**3/T
     ------------------                 ------------------------

           IN:                                      IN:
           ---                                      ---
             STORAGE =       24951.5176               STORAGE =           5.2696
       CONSTANT HEAD =           0.0000         CONSTANT HEAD =           0.0000
               WELLS =           0.0000                 WELLS =           0.0000
     HEAD DEP BOUNDS =       21978.4277       HEAD DEP BOUNDS =         551.8049

            TOTAL IN =       46929.9453              TOTAL IN =         557.0745

          OUT:                                     OUT:
          ----                                     ----
             STORAGE =           0.0000               STORAGE =           0.0000
       CONSTANT HEAD =           0.0000         CONSTANT HEAD =           0.0000
               WELLS =           0.0000                 WELLS =           0.0000
     HEAD DEP BOUNDS =       46929.9492       HEAD DEP BOUNDS =         557.0612

           TOTAL OUT =       46929.9492             TOTAL OUT =         557.0612

            IN - OUT =      -3.9062E-03              IN - OUT =       1.3367E-02

 PERCENT DISCREPANCY =          -0.00     PERCENT DISCREPANCY =           0.00






         TIME SUMMARY AT END OF TIME STEP   53 IN STRESS PERIOD    2
                    SECONDS     MINUTES      HOURS       DAYS        YEARS
                    -----------------------------------------------------------
   TIME STEP LENGTH  86400.      1440.0      24.000      1.0000     2.73785E-03
 STRESS PERIOD TIME 4.57920E+06  76320.      1272.0      53.000     0.14511    
         TOTAL TIME 4.66560E+06  77760.      1296.0      54.000     0.14784    
1

 SOLVING FOR HEAD 

 OUTPUT CONTROL FOR STRESS PERIOD    2   TIME STEP   54
    SAVE HEAD FOR ALL LAYERS
    SAVE DRAWDOWN FOR ALL LAYERS
    SAVE BUDGET
    PRINT HEAD FOR ALL LAYERS
    PRINT BUDGET
 UBDSV1 SAVING "         STORAGE" ON UNIT  53 AT TIME STEP 54, STRESS PERIOD   2
 UBDSV2 SAVING "   CONSTANT HEAD" ON UNIT  53 AT TIME STEP 54, STRESS PERIOD   2
 UBDSV1 SAVING "FLOW RIGHT FACE " ON UNIT  53 AT TIME STEP 54, STRESS PERIOD   2
 UBDSV1 SAVING "FLOW FRONT FACE " ON UNIT  53 AT TIME STEP 54, STRESS PERIOD   2
1
              HEAD IN LAYER   1 AT END OF TIME STEP  54 IN STRESS PERIOD    2
  ---------------------------------------------------------------------------

            1           2           3           4           5           6           7           8           9          10
 ........................................................................................................................
   1    9.991       8.887       7.782       6.676       5.569       4.460       3.350       2.238       1.125      1.1136E-02
   2    9.991       8.887       7.782       6.676       5.569       4.460       3.350       2.238       1.125      1.1136E-02
   3    9.991       8.887       7.782       6.676       5.569       4.460       3.350       2.238       1.125      1.1136E-02
   4    9.991       8.887       7.782       6.676       5.569       4.460       3.350       2.238       1.125      1.1136E-02
   5    9.991       8.887       7.782       6.676       5.569       4.460       3.350       2.238       1.125      1.1136E-02
   6    9.991       8.887       7.782       6.676       5.569       4.460       3.350       2.238       1.125      1.1136E-02
   7    9.991       8.887       7.782       6.676       5.569       4.460       3.350       2.238       1.125      1.1136E-02
   8    9.991       8.887       7.782       6.676       5.569       4.460       3.350       2.238       1.125      1.1136E-02
   9    9.991       8.887       7.782       6.676       5.569       4.460       3.350       2.238       1.125      1.1136E-02
  10    9.991       8.887       7.782       6.676       5.569       4.460       3.350       2.238       1.125      1.1136E-02

 HEAD WILL BE SAVED ON UNIT   51 AT END OF TIME STEP   54, STRESS PERIOD    2

 DRAWDOWN WILL BE SAVED ON UNIT   52 AT END OF TIME STEP   54, STRESS PERIOD    2
1
  VOLUMETRIC BUDGET FOR ENTIRE MODEL AT END OF TIME STEP   54, STRESS PERIOD   2
  ------------------------------------------------------------------------------

     CUMULATIVE VOLUMES      L**3       RATES FOR THIS TIME STEP      L**3/T
     ------------------                 ------------------------

           IN:                                      IN:
           ---                                      ---
             STORAGE =       24956.2227               STORAGE =           4.7047
       CONSTANT HEAD =           0.0000         CONSTANT HEAD =           0.0000
               WELLS =           0.0000                 WELLS =           0.0000
     HEAD DEP BOUNDS =       22530.5117       HEAD DEP BOUNDS =         552.0850

            TOTAL IN =       47486.7344              TOTAL IN =         556.7897

          OUT:                                     OUT:
          ----                                     ----
             STORAGE =           0.0000               STORAGE =           0.0000
       CONSTANT HEAD =           0.0000         CONSTANT HEAD =           0.0000
               WELLS =           0.0000                 WELLS =           0.0000
     HEAD DEP BOUNDS =       47486.7266       HEAD DEP BOUNDS =         556.7785

           TOTAL OUT =       47486.7266             TOTAL OUT =         556.7785

            IN - OUT =       7.8125E-03              IN - OUT =       1.1169E-02

 PERCENT DISCREPANCY =           0.00     PERCENT DISCREPANCY =           0.00






         TIME SUMMARY AT END OF TIME STEP   54 IN STRESS PERIOD    2
                    SECONDS     MINUTES      HOURS       DAYS        YEARS
                    -----------------------------------------------------------
   TIME STEP LENGTH  86400.      1440.0      24.000      1.0000     2.73785E-03
 STRESS PERIOD TIME 4.66560E+06  77760.      1296.0      54.000     0.14784    
         TOTAL TIME 4.75200E+06  79200.      1320.0      55.000     0.15058    
1

 SOLVING FOR HEAD 

 OUTPUT CONTROL FOR STRESS PERIOD    2   TIME STEP   55
    SAVE HEAD FOR ALL LAYERS
    SAVE DRAWDOWN FOR ALL LAYERS
    SAVE BUDGET
    PRINT HEAD FOR ALL LAYERS
    PRINT BUDGET
 UBDSV1 SAVING "         STORAGE" ON UNIT  53 AT TIME STEP 55, STRESS PERIOD   2
 UBDSV2 SAVING "   CONSTANT HEAD" ON UNIT  53 AT TIME STEP 55, STRESS PERIOD   2
 UBDSV1 SAVING "FLOW RIGHT FACE " ON UNIT  53 AT TIME STEP 55, STRESS PERIOD   2
 UBDSV1 SAVING "FLOW FRONT FACE " ON UNIT  53 AT TIME STEP 55, STRESS PERIOD   2
1
              HEAD IN LAYER   1 AT END OF TIME STEP  55 IN STRESS PERIOD    2
  ---------------------------------------------------------------------------

            1           2           3           4           5           6           7           8           9          10
 ........................................................................................................................
   1    9.991       8.886       7.781       6.675       5.567       4.459       3.348       2.237       1.124      1.1131E-02
   2    9.991       8.886       7.781       6.675       5.567       4.459       3.348       2.237       1.124      1.1131E-02
   3    9.991       8.886       7.781       6.675       5.567       4.459       3.348       2.237       1.124      1.1131E-02
   4    9.991       8.886       7.781       6.675       5.567       4.459       3.348       2.237       1.124      1.1131E-02
   5    9.991       8.886       7.781       6.675       5.567       4.459       3.348       2.237       1.124      1.1131E-02
   6    9.991       8.886       7.781       6.675       5.567       4.459       3.348       2.237       1.124      1.1131E-02
   7    9.991       8.886       7.781       6.675       5.567       4.459       3.348       2.237       1.124      1.1131E-02
   8    9.991       8.886       7.781       6.675       5.567       4.459       3.348       2.237       1.124      1.1131E-02
   9    9.991       8.886       7.781       6.675       5.567       4.459       3.348       2.237       1.124      1.1131E-02
  10    9.991       8.886       7.781       6.675       5.567       4.459       3.348       2.237       1.124      1.1131E-02

 HEAD WILL BE SAVED ON UNIT   51 AT END OF TIME STEP   55, STRESS PERIOD    2

 DRAWDOWN WILL BE SAVED ON UNIT   52 AT END OF TIME STEP   55, STRESS PERIOD    2
1
  VOLUMETRIC BUDGET FOR ENTIRE MODEL AT END OF TIME STEP   55, STRESS PERIOD   2
  ------------------------------------------------------------------------------

     CUMULATIVE VOLUMES      L**3       RATES FOR THIS TIME STEP      L**3/T
     ------------------                 ------------------------

           IN:                                      IN:
           ---                                      ---
             STORAGE =       24960.4219               STORAGE =           4.2001
       CONSTANT HEAD =           0.0000         CONSTANT HEAD =           0.0000
               WELLS =           0.0000                 WELLS =           0.0000
     HEAD DEP BOUNDS =       23082.8477       HEAD DEP BOUNDS =         552.3350

            TOTAL IN =       48043.2695              TOTAL IN =         556.5351

          OUT:                                     OUT:
          ----                                     ----
             STORAGE =           0.0000               STORAGE =           0.0000
       CONSTANT HEAD =           0.0000         CONSTANT HEAD =           0.0000
               WELLS =           0.0000                 WELLS =           0.0000
     HEAD DEP BOUNDS =       48043.2539       HEAD DEP BOUNDS =         556.5262

           TOTAL OUT =       48043.2539             TOTAL OUT =         556.5262

            IN - OUT =       1.5625E-02              IN - OUT =       8.9111E-03

 PERCENT DISCREPANCY =           0.00     PERCENT DISCREPANCY =           0.00






         TIME SUMMARY AT END OF TIME STEP   55 IN STRESS PERIOD    2
                    SECONDS     MINUTES      HOURS       DAYS        YEARS
                    -----------------------------------------------------------
   TIME STEP LENGTH  86400.      1440.0      24.000      1.0000     2.73785E-03
 STRESS PERIOD TIME 4.75200E+06  79200.      1320.0      55.000     0.15058    
         TOTAL TIME 4.83840E+06  80640.      1344.0      56.000     0.15332    
1

 SOLVING FOR HEAD 

 OUTPUT CONTROL FOR STRESS PERIOD    2   TIME STEP   56
    SAVE HEAD FOR ALL LAYERS
    SAVE DRAWDOWN FOR ALL LAYERS
    SAVE BUDGET
    PRINT HEAD FOR ALL LAYERS
    PRINT BUDGET
 UBDSV1 SAVING "         STORAGE" ON UNIT  53 AT TIME STEP 56, STRESS PERIOD   2
 UBDSV2 SAVING "   CONSTANT HEAD" ON UNIT  53 AT TIME STEP 56, STRESS PERIOD   2
 UBDSV1 SAVING "FLOW RIGHT FACE " ON UNIT  53 AT TIME STEP 56, STRESS PERIOD   2
 UBDSV1 SAVING "FLOW FRONT FACE " ON UNIT  53 AT TIME STEP 56, STRESS PERIOD   2
1
              HEAD IN LAYER   1 AT END OF TIME STEP  56 IN STRESS PERIOD    2
  ---------------------------------------------------------------------------

            1           2           3           4           5           6           7           8           9          10
 ........................................................................................................................
   1    9.991       8.886       7.780       6.674       5.566       4.457       3.347       2.236       1.124      1.1126E-02
   2    9.991       8.886       7.780       6.674       5.566       4.457       3.347       2.236       1.124      1.1126E-02
   3    9.991       8.886       7.780       6.674       5.566       4.457       3.347       2.236       1.124      1.1126E-02
   4    9.991       8.886       7.780       6.674       5.566       4.457       3.347       2.236       1.124      1.1126E-02
   5    9.991       8.886       7.780       6.674       5.566       4.457       3.347       2.236       1.124      1.1126E-02
   6    9.991       8.886       7.780       6.674       5.566       4.457       3.347       2.236       1.124      1.1126E-02
   7    9.991       8.886       7.780       6.674       5.566       4.457       3.347       2.236       1.124      1.1126E-02
   8    9.991       8.886       7.780       6.674       5.566       4.457       3.347       2.236       1.124      1.1126E-02
   9    9.991       8.886       7.780       6.674       5.566       4.457       3.347       2.236       1.124      1.1126E-02
  10    9.991       8.886       7.780       6.674       5.566       4.457       3.347       2.236       1.124      1.1126E-02

 HEAD WILL BE SAVED ON UNIT   51 AT END OF TIME STEP   56, STRESS PERIOD    2

 DRAWDOWN WILL BE SAVED ON UNIT   52 AT END OF TIME STEP   56, STRESS PERIOD    2
1
  VOLUMETRIC BUDGET FOR ENTIRE MODEL AT END OF TIME STEP   56, STRESS PERIOD   2
  ------------------------------------------------------------------------------

     CUMULATIVE VOLUMES      L**3       RATES FOR THIS TIME STEP      L**3/T
     ------------------                 ------------------------

           IN:                                      IN:
           ---                                      ---
             STORAGE =       24964.1719               STORAGE =           3.7493
       CONSTANT HEAD =           0.0000         CONSTANT HEAD =           0.0000
               WELLS =           0.0000                 WELLS =           0.0000
     HEAD DEP BOUNDS =       23635.4062       HEAD DEP BOUNDS =         552.5582

            TOTAL IN =       48599.5781              TOTAL IN =         556.3074

          OUT:                                     OUT:
          ----                                     ----
             STORAGE =           0.0000               STORAGE =           0.0000
       CONSTANT HEAD =           0.0000         CONSTANT HEAD =           0.0000
               WELLS =           0.0000                 WELLS =           0.0000
     HEAD DEP BOUNDS =       48599.5547       HEAD DEP BOUNDS =         556.3010

           TOTAL OUT =       48599.5547             TOTAL OUT =         556.3010

            IN - OUT =       2.3438E-02              IN - OUT =       6.4697E-03

 PERCENT DISCREPANCY =           0.00     PERCENT DISCREPANCY =           0.00






         TIME SUMMARY AT END OF TIME STEP   56 IN STRESS PERIOD    2
                    SECONDS     MINUTES      HOURS       DAYS        YEARS
                    -----------------------------------------------------------
   TIME STEP LENGTH  86400.      1440.0      24.000      1.0000     2.73785E-03
 STRESS PERIOD TIME 4.83840E+06  80640.      1344.0      56.000     0.15332    
         TOTAL TIME 4.92480E+06  82080.      1368.0      57.000     0.15606    
1

 SOLVING FOR HEAD 

 OUTPUT CONTROL FOR STRESS PERIOD    2   TIME STEP   57
    SAVE HEAD FOR ALL LAYERS
    SAVE DRAWDOWN FOR ALL LAYERS
    SAVE BUDGET
    PRINT HEAD FOR ALL LAYERS
    PRINT BUDGET
 UBDSV1 SAVING "         STORAGE" ON UNIT  53 AT TIME STEP 57, STRESS PERIOD   2
 UBDSV2 SAVING "   CONSTANT HEAD" ON UNIT  53 AT TIME STEP 57, STRESS PERIOD   2
 UBDSV1 SAVING "FLOW RIGHT FACE " ON UNIT  53 AT TIME STEP 57, STRESS PERIOD   2
 UBDSV1 SAVING "FLOW FRONT FACE " ON UNIT  53 AT TIME STEP 57, STRESS PERIOD   2
1
              HEAD IN LAYER   1 AT END OF TIME STEP  57 IN STRESS PERIOD    2
  ---------------------------------------------------------------------------

            1           2           3           4           5           6           7           8           9          10
 ........................................................................................................................
   1    9.991       8.885       7.779       6.673       5.565       4.456       3.346       2.235       1.123      1.1122E-02
   2    9.991       8.885       7.779       6.673       5.565       4.456       3.346       2.235       1.123      1.1122E-02
   3    9.991       8.885       7.779       6.673       5.565       4.456       3.346       2.235       1.123      1.1122E-02
   4    9.991       8.885       7.779       6.673       5.565       4.456       3.346       2.235       1.123      1.1122E-02
   5    9.991       8.885       7.779       6.673       5.565       4.456       3.346       2.235       1.123      1.1122E-02
   6    9.991       8.885       7.779       6.673       5.565       4.456       3.346       2.235       1.123      1.1122E-02
   7    9.991       8.885       7.779       6.673       5.565       4.456       3.346       2.235       1.123      1.1122E-02
   8    9.991       8.885       7.779       6.673       5.565       4.456       3.346       2.235       1.123      1.1122E-02
   9    9.991       8.885       7.779       6.673       5.565       4.456       3.346       2.235       1.123      1.1122E-02
  10    9.991       8.885       7.779       6.673       5.565       4.456       3.346       2.235       1.123      1.1122E-02

 HEAD WILL BE SAVED ON UNIT   51 AT END OF TIME STEP   57, STRESS PERIOD    2

 DRAWDOWN WILL BE SAVED ON UNIT   52 AT END OF TIME STEP   57, STRESS PERIOD    2
1
  VOLUMETRIC BUDGET FOR ENTIRE MODEL AT END OF TIME STEP   57, STRESS PERIOD   2
  ------------------------------------------------------------------------------

     CUMULATIVE VOLUMES      L**3       RATES FOR THIS TIME STEP      L**3/T
     ------------------                 ------------------------

           IN:                                      IN:
           ---                                      ---
             STORAGE =       24967.5195               STORAGE =           3.3471
       CONSTANT HEAD =           0.0000         CONSTANT HEAD =           0.0000
               WELLS =           0.0000                 WELLS =           0.0000
     HEAD DEP BOUNDS =       24188.1641       HEAD DEP BOUNDS =         552.7573

            TOTAL IN =       49155.6836              TOTAL IN =         556.1044

          OUT:                                     OUT:
          ----                                     ----
             STORAGE =           0.0000               STORAGE =           0.0000
       CONSTANT HEAD =           0.0000         CONSTANT HEAD =           0.0000
               WELLS =           0.0000                 WELLS =           0.0000
     HEAD DEP BOUNDS =       49155.6562       HEAD DEP BOUNDS =         556.0999

           TOTAL OUT =       49155.6562             TOTAL OUT =         556.0999

            IN - OUT =       2.7344E-02              IN - OUT =       4.4556E-03

 PERCENT DISCREPANCY =           0.00     PERCENT DISCREPANCY =           0.00






         TIME SUMMARY AT END OF TIME STEP   57 IN STRESS PERIOD    2
                    SECONDS     MINUTES      HOURS       DAYS        YEARS
                    -----------------------------------------------------------
   TIME STEP LENGTH  86400.      1440.0      24.000      1.0000     2.73785E-03
 STRESS PERIOD TIME 4.92480E+06  82080.      1368.0      57.000     0.15606    
         TOTAL TIME 5.01120E+06  83520.      1392.0      58.000     0.15880    
1

 SOLVING FOR HEAD 

 OUTPUT CONTROL FOR STRESS PERIOD    2   TIME STEP   58
    SAVE HEAD FOR ALL LAYERS
    SAVE DRAWDOWN FOR ALL LAYERS
    SAVE BUDGET
    PRINT HEAD FOR ALL LAYERS
    PRINT BUDGET
 UBDSV1 SAVING "         STORAGE" ON UNIT  53 AT TIME STEP 58, STRESS PERIOD   2
 UBDSV2 SAVING "   CONSTANT HEAD" ON UNIT  53 AT TIME STEP 58, STRESS PERIOD   2
 UBDSV1 SAVING "FLOW RIGHT FACE " ON UNIT  53 AT TIME STEP 58, STRESS PERIOD   2
 UBDSV1 SAVING "FLOW FRONT FACE " ON UNIT  53 AT TIME STEP 58, STRESS PERIOD   2
1
              HEAD IN LAYER   1 AT END OF TIME STEP  58 IN STRESS PERIOD    2
  ---------------------------------------------------------------------------

            1           2           3           4           5           6           7           8           9          10
 ........................................................................................................................
   1    9.991       8.885       7.779       6.672       5.564       4.455       3.345       2.234       1.123      1.1118E-02
   2    9.991       8.885       7.779       6.672       5.564       4.455       3.345       2.234       1.123      1.1118E-02
   3    9.991       8.885       7.779       6.672       5.564       4.455       3.345       2.234       1.123      1.1118E-02
   4    9.991       8.885       7.779       6.672       5.564       4.455       3.345       2.234       1.123      1.1118E-02
   5    9.991       8.885       7.779       6.672       5.564       4.455       3.345       2.234       1.123      1.1118E-02
   6    9.991       8.885       7.779       6.672       5.564       4.455       3.345       2.234       1.123      1.1118E-02
   7    9.991       8.885       7.779       6.672       5.564       4.455       3.345       2.234       1.123      1.1118E-02
   8    9.991       8.885       7.779       6.672       5.564       4.455       3.345       2.234       1.123      1.1118E-02
   9    9.991       8.885       7.779       6.672       5.564       4.455       3.345       2.234       1.123      1.1118E-02
  10    9.991       8.885       7.779       6.672       5.564       4.455       3.345       2.234       1.123      1.1118E-02

 HEAD WILL BE SAVED ON UNIT   51 AT END OF TIME STEP   58, STRESS PERIOD    2

 DRAWDOWN WILL BE SAVED ON UNIT   52 AT END OF TIME STEP   58, STRESS PERIOD    2
1
  VOLUMETRIC BUDGET FOR ENTIRE MODEL AT END OF TIME STEP   58, STRESS PERIOD   2
  ------------------------------------------------------------------------------

     CUMULATIVE VOLUMES      L**3       RATES FOR THIS TIME STEP      L**3/T
     ------------------                 ------------------------

           IN:                                      IN:
           ---                                      ---
             STORAGE =       24970.5078               STORAGE =           2.9881
       CONSTANT HEAD =           0.0000         CONSTANT HEAD =           0.0000
               WELLS =           0.0000                 WELLS =           0.0000
     HEAD DEP BOUNDS =       24741.0996       HEAD DEP BOUNDS =         552.9352

            TOTAL IN =       49711.6094              TOTAL IN =         555.9233

          OUT:                                     OUT:
          ----                                     ----
             STORAGE =           0.0000               STORAGE =           0.0000
       CONSTANT HEAD =           0.0000         CONSTANT HEAD =           0.0000
               WELLS =           0.0000                 WELLS =           0.0000
     HEAD DEP BOUNDS =       49711.5781       HEAD DEP BOUNDS =         555.9204

           TOTAL OUT =       49711.5781             TOTAL OUT =         555.9204

            IN - OUT =       3.1250E-02              IN - OUT =       2.9297E-03

 PERCENT DISCREPANCY =           0.00     PERCENT DISCREPANCY =           0.00






         TIME SUMMARY AT END OF TIME STEP   58 IN STRESS PERIOD    2
                    SECONDS     MINUTES      HOURS       DAYS        YEARS
                    -----------------------------------------------------------
   TIME STEP LENGTH  86400.      1440.0      24.000      1.0000     2.73785E-03
 STRESS PERIOD TIME 5.01120E+06  83520.      1392.0      58.000     0.15880    
         TOTAL TIME 5.09760E+06  84960.      1416.0      59.000     0.16153    
1

 SOLVING FOR HEAD 

 OUTPUT CONTROL FOR STRESS PERIOD    2   TIME STEP   59
    SAVE HEAD FOR ALL LAYERS
    SAVE DRAWDOWN FOR ALL LAYERS
    SAVE BUDGET
    PRINT HEAD FOR ALL LAYERS
    PRINT BUDGET
 UBDSV1 SAVING "         STORAGE" ON UNIT  53 AT TIME STEP 59, STRESS PERIOD   2
 UBDSV2 SAVING "   CONSTANT HEAD" ON UNIT  53 AT TIME STEP 59, STRESS PERIOD   2
 UBDSV1 SAVING "FLOW RIGHT FACE " ON UNIT  53 AT TIME STEP 59, STRESS PERIOD   2
 UBDSV1 SAVING "FLOW FRONT FACE " ON UNIT  53 AT TIME STEP 59, STRESS PERIOD   2
1
              HEAD IN LAYER   1 AT END OF TIME STEP  59 IN STRESS PERIOD    2
  ---------------------------------------------------------------------------

            1           2           3           4           5           6           7           8           9          10
 ........................................................................................................................
   1    9.991       8.885       7.778       6.671       5.563       4.454       3.344       2.234       1.123      1.1115E-02
   2    9.991       8.885       7.778       6.671       5.563       4.454       3.344       2.234       1.123      1.1115E-02
   3    9.991       8.885       7.778       6.671       5.563       4.454       3.344       2.234       1.123      1.1115E-02
   4    9.991       8.885       7.778       6.671       5.563       4.454       3.344       2.234       1.123      1.1115E-02
   5    9.991       8.885       7.778       6.671       5.563       4.454       3.344       2.234       1.123      1.1115E-02
   6    9.991       8.885       7.778       6.671       5.563       4.454       3.344       2.234       1.123      1.1115E-02
   7    9.991       8.885       7.778       6.671       5.563       4.454       3.344       2.234       1.123      1.1115E-02
   8    9.991       8.885       7.778       6.671       5.563       4.454       3.344       2.234       1.123      1.1115E-02
   9    9.991       8.885       7.778       6.671       5.563       4.454       3.344       2.234       1.123      1.1115E-02
  10    9.991       8.885       7.778       6.671       5.563       4.454       3.344       2.234       1.123      1.1115E-02

 HEAD WILL BE SAVED ON UNIT   51 AT END OF TIME STEP   59, STRESS PERIOD    2

 DRAWDOWN WILL BE SAVED ON UNIT   52 AT END OF TIME STEP   59, STRESS PERIOD    2
1
  VOLUMETRIC BUDGET FOR ENTIRE MODEL AT END OF TIME STEP   59, STRESS PERIOD   2
  ------------------------------------------------------------------------------

     CUMULATIVE VOLUMES      L**3       RATES FOR THIS TIME STEP      L**3/T
     ------------------                 ------------------------

           IN:                                      IN:
           ---                                      ---
             STORAGE =       24973.1758               STORAGE =           2.6682
       CONSTANT HEAD =           0.0000         CONSTANT HEAD =           0.0000
               WELLS =           0.0000                 WELLS =           0.0000
     HEAD DEP BOUNDS =       25294.1934       HEAD DEP BOUNDS =         553.0940

            TOTAL IN =       50267.3672              TOTAL IN =         555.7622

          OUT:                                     OUT:
          ----                                     ----
             STORAGE =           0.0000               STORAGE =           0.0000
       CONSTANT HEAD =           0.0000         CONSTANT HEAD =           0.0000
               WELLS =           0.0000                 WELLS =           0.0000
     HEAD DEP BOUNDS =       50267.3398       HEAD DEP BOUNDS =         555.7601

           TOTAL OUT =       50267.3398             TOTAL OUT =         555.7601

            IN - OUT =       2.7344E-02              IN - OUT =       2.0752E-03

 PERCENT DISCREPANCY =           0.00     PERCENT DISCREPANCY =           0.00






         TIME SUMMARY AT END OF TIME STEP   59 IN STRESS PERIOD    2
                    SECONDS     MINUTES      HOURS       DAYS        YEARS
                    -----------------------------------------------------------
   TIME STEP LENGTH  86400.      1440.0      24.000      1.0000     2.73785E-03
 STRESS PERIOD TIME 5.09760E+06  84960.      1416.0      59.000     0.16153    
         TOTAL TIME 5.18400E+06  86400.      1440.0      60.000     0.16427    
1

 SOLVING FOR HEAD 

 OUTPUT CONTROL FOR STRESS PERIOD    2   TIME STEP   60
    SAVE HEAD FOR ALL LAYERS
    SAVE DRAWDOWN FOR ALL LAYERS
    SAVE BUDGET
    PRINT HEAD FOR ALL LAYERS
    PRINT BUDGET
 UBDSV1 SAVING "         STORAGE" ON UNIT  53 AT TIME STEP 60, STRESS PERIOD   2
 UBDSV2 SAVING "   CONSTANT HEAD" ON UNIT  53 AT TIME STEP 60, STRESS PERIOD   2
 UBDSV1 SAVING "FLOW RIGHT FACE " ON UNIT  53 AT TIME STEP 60, STRESS PERIOD   2
 UBDSV1 SAVING "FLOW FRONT FACE " ON UNIT  53 AT TIME STEP 60, STRESS PERIOD   2
1
              HEAD IN LAYER   1 AT END OF TIME STEP  60 IN STRESS PERIOD    2
  ---------------------------------------------------------------------------

            1           2           3           4           5           6           7           8           9          10
 ........................................................................................................................
   1    9.991       8.884       7.778       6.670       5.562       4.453       3.344       2.233       1.122      1.1112E-02
   2    9.991       8.884       7.778       6.670       5.562       4.453       3.344       2.233       1.122      1.1112E-02
   3    9.991       8.884       7.778       6.670       5.562       4.453       3.344       2.233       1.122      1.1112E-02
   4    9.991       8.884       7.778       6.670       5.562       4.453       3.344       2.233       1.122      1.1112E-02
   5    9.991       8.884       7.778       6.670       5.562       4.453       3.344       2.233       1.122      1.1112E-02
   6    9.991       8.884       7.778       6.670       5.562       4.453       3.344       2.233       1.122      1.1112E-02
   7    9.991       8.884       7.778       6.670       5.562       4.453       3.344       2.233       1.122      1.1112E-02
   8    9.991       8.884       7.778       6.670       5.562       4.453       3.344       2.233       1.122      1.1112E-02
   9    9.991       8.884       7.778       6.670       5.562       4.453       3.344       2.233       1.122      1.1112E-02
  10    9.991       8.884       7.778       6.670       5.562       4.453       3.344       2.233       1.122      1.1112E-02

 HEAD WILL BE SAVED ON UNIT   51 AT END OF TIME STEP   60, STRESS PERIOD    2

 DRAWDOWN WILL BE SAVED ON UNIT   52 AT END OF TIME STEP   60, STRESS PERIOD    2
1
  VOLUMETRIC BUDGET FOR ENTIRE MODEL AT END OF TIME STEP   60, STRESS PERIOD   2
  ------------------------------------------------------------------------------

     CUMULATIVE VOLUMES      L**3       RATES FOR THIS TIME STEP      L**3/T
     ------------------                 ------------------------

           IN:                                      IN:
           ---                                      ---
             STORAGE =       24975.5566               STORAGE =           2.3815
       CONSTANT HEAD =           0.0000         CONSTANT HEAD =           0.0000
               WELLS =           0.0000                 WELLS =           0.0000
     HEAD DEP BOUNDS =       25847.4297       HEAD DEP BOUNDS =         553.2357

            TOTAL IN =       50822.9844              TOTAL IN =         555.6172

          OUT:                                     OUT:
          ----                                     ----
             STORAGE =           0.0000               STORAGE =           0.0000
       CONSTANT HEAD =           0.0000         CONSTANT HEAD =           0.0000
               WELLS =           0.0000                 WELLS =           0.0000
     HEAD DEP BOUNDS =       50822.9570       HEAD DEP BOUNDS =         555.6171

           TOTAL OUT =       50822.9570             TOTAL OUT =         555.6171

            IN - OUT =       2.7344E-02              IN - OUT =       1.2207E-04

 PERCENT DISCREPANCY =           0.00     PERCENT DISCREPANCY =           0.00






         TIME SUMMARY AT END OF TIME STEP   60 IN STRESS PERIOD    2
                    SECONDS     MINUTES      HOURS       DAYS        YEARS
                    -----------------------------------------------------------
   TIME STEP LENGTH  86400.      1440.0      24.000      1.0000     2.73785E-03
 STRESS PERIOD TIME 5.18400E+06  86400.      1440.0      60.000     0.16427    
         TOTAL TIME 5.27040E+06  87840.      1464.0      61.000     0.16701    
1

 SOLVING FOR HEAD 

 OUTPUT CONTROL FOR STRESS PERIOD    2   TIME STEP   61
    SAVE HEAD FOR ALL LAYERS
    SAVE DRAWDOWN FOR ALL LAYERS
    SAVE BUDGET
    PRINT HEAD FOR ALL LAYERS
    PRINT BUDGET
 UBDSV1 SAVING "         STORAGE" ON UNIT  53 AT TIME STEP 61, STRESS PERIOD   2
 UBDSV2 SAVING "   CONSTANT HEAD" ON UNIT  53 AT TIME STEP 61, STRESS PERIOD   2
 UBDSV1 SAVING "FLOW RIGHT FACE " ON UNIT  53 AT TIME STEP 61, STRESS PERIOD   2
 UBDSV1 SAVING "FLOW FRONT FACE " ON UNIT  53 AT TIME STEP 61, STRESS PERIOD   2
1
              HEAD IN LAYER   1 AT END OF TIME STEP  61 IN STRESS PERIOD    2
  ---------------------------------------------------------------------------

            1           2           3           4           5           6           7           8           9          10
 ........................................................................................................................
   1    9.991       8.884       7.777       6.670       5.561       4.453       3.343       2.233       1.122      1.1110E-02
   2    9.991       8.884       7.777       6.670       5.561       4.453       3.343       2.233       1.122      1.1110E-02
   3    9.991       8.884       7.777       6.670       5.561       4.453       3.343       2.233       1.122      1.1110E-02
   4    9.991       8.884       7.777       6.670       5.561       4.453       3.343       2.233       1.122      1.1110E-02
   5    9.991       8.884       7.777       6.670       5.561       4.453       3.343       2.233       1.122      1.1110E-02
   6    9.991       8.884       7.777       6.670       5.561       4.453       3.343       2.233       1.122      1.1110E-02
   7    9.991       8.884       7.777       6.670       5.561       4.453       3.343       2.233       1.122      1.1110E-02
   8    9.991       8.884       7.777       6.670       5.561       4.453       3.343       2.233       1.122      1.1110E-02
   9    9.991       8.884       7.777       6.670       5.561       4.453       3.343       2.233       1.122      1.1110E-02
  10    9.991       8.884       7.777       6.670       5.561       4.453       3.343       2.233       1.122      1.1110E-02

 HEAD WILL BE SAVED ON UNIT   51 AT END OF TIME STEP   61, STRESS PERIOD    2

 DRAWDOWN WILL BE SAVED ON UNIT   52 AT END OF TIME STEP   61, STRESS PERIOD    2
1
  VOLUMETRIC BUDGET FOR ENTIRE MODEL AT END OF TIME STEP   61, STRESS PERIOD   2
  ------------------------------------------------------------------------------

     CUMULATIVE VOLUMES      L**3       RATES FOR THIS TIME STEP      L**3/T
     ------------------                 ------------------------

           IN:                                      IN:
           ---                                      ---
             STORAGE =       24977.6836               STORAGE =           2.1268
       CONSTANT HEAD =           0.0000         CONSTANT HEAD =           0.0000
               WELLS =           0.0000                 WELLS =           0.0000
     HEAD DEP BOUNDS =       26400.7930       HEAD DEP BOUNDS =         553.3623

            TOTAL IN =       51378.4766              TOTAL IN =         555.4891

          OUT:                                     OUT:
          ----                                     ----
             STORAGE =           0.0000               STORAGE =           0.0000
       CONSTANT HEAD =           0.0000         CONSTANT HEAD =           0.0000
               WELLS =           0.0000                 WELLS =           0.0000
     HEAD DEP BOUNDS =       51378.4453       HEAD DEP BOUNDS =         555.4893

           TOTAL OUT =       51378.4453             TOTAL OUT =         555.4893

            IN - OUT =       3.1250E-02              IN - OUT =      -2.4414E-04

 PERCENT DISCREPANCY =           0.00     PERCENT DISCREPANCY =          -0.00






         TIME SUMMARY AT END OF TIME STEP   61 IN STRESS PERIOD    2
                    SECONDS     MINUTES      HOURS       DAYS        YEARS
                    -----------------------------------------------------------
   TIME STEP LENGTH  86400.      1440.0      24.000      1.0000     2.73785E-03
 STRESS PERIOD TIME 5.27040E+06  87840.      1464.0      61.000     0.16701    
         TOTAL TIME 5.35680E+06  89280.      1488.0      62.000     0.16975    
1

 SOLVING FOR HEAD 

 OUTPUT CONTROL FOR STRESS PERIOD    2   TIME STEP   62
    SAVE HEAD FOR ALL LAYERS
    SAVE DRAWDOWN FOR ALL LAYERS
    SAVE BUDGET
    PRINT HEAD FOR ALL LAYERS
    PRINT BUDGET
 UBDSV1 SAVING "         STORAGE" ON UNIT  53 AT TIME STEP 62, STRESS PERIOD   2
 UBDSV2 SAVING "   CONSTANT HEAD" ON UNIT  53 AT TIME STEP 62, STRESS PERIOD   2
 UBDSV1 SAVING "FLOW RIGHT FACE " ON UNIT  53 AT TIME STEP 62, STRESS PERIOD   2
 UBDSV1 SAVING "FLOW FRONT FACE " ON UNIT  53 AT TIME STEP 62, STRESS PERIOD   2
1
              HEAD IN LAYER   1 AT END OF TIME STEP  62 IN STRESS PERIOD    2
  ---------------------------------------------------------------------------

            1           2           3           4           5           6           7           8           9          10
 ........................................................................................................................
   1    9.991       8.884       7.777       6.669       5.561       4.452       3.342       2.232       1.122      1.1108E-02
   2    9.991       8.884       7.777       6.669       5.561       4.452       3.342       2.232       1.122      1.1108E-02
   3    9.991       8.884       7.777       6.669       5.561       4.452       3.342       2.232       1.122      1.1108E-02
   4    9.991       8.884       7.777       6.669       5.561       4.452       3.342       2.232       1.122      1.1108E-02
   5    9.991       8.884       7.777       6.669       5.561       4.452       3.342       2.232       1.122      1.1108E-02
   6    9.991       8.884       7.777       6.669       5.561       4.452       3.342       2.232       1.122      1.1108E-02
   7    9.991       8.884       7.777       6.669       5.561       4.452       3.342       2.232       1.122      1.1108E-02
   8    9.991       8.884       7.777       6.669       5.561       4.452       3.342       2.232       1.122      1.1108E-02
   9    9.991       8.884       7.777       6.669       5.561       4.452       3.342       2.232       1.122      1.1108E-02
  10    9.991       8.884       7.777       6.669       5.561       4.452       3.342       2.232       1.122      1.1108E-02

 HEAD WILL BE SAVED ON UNIT   51 AT END OF TIME STEP   62, STRESS PERIOD    2

 DRAWDOWN WILL BE SAVED ON UNIT   52 AT END OF TIME STEP   62, STRESS PERIOD    2
1
  VOLUMETRIC BUDGET FOR ENTIRE MODEL AT END OF TIME STEP   62, STRESS PERIOD   2
  ------------------------------------------------------------------------------

     CUMULATIVE VOLUMES      L**3       RATES FOR THIS TIME STEP      L**3/T
     ------------------                 ------------------------

           IN:                                      IN:
           ---                                      ---
             STORAGE =       24979.5820               STORAGE =           1.8983
       CONSTANT HEAD =           0.0000         CONSTANT HEAD =           0.0000
               WELLS =           0.0000                 WELLS =           0.0000
     HEAD DEP BOUNDS =       26954.2676       HEAD DEP BOUNDS =         553.4753

            TOTAL IN =       51933.8516              TOTAL IN =         555.3736

          OUT:                                     OUT:
          ----                                     ----
             STORAGE =           0.0000               STORAGE =           0.0000
       CONSTANT HEAD =           0.0000         CONSTANT HEAD =           0.0000
               WELLS =           0.0000                 WELLS =           0.0000
     HEAD DEP BOUNDS =       51933.8203       HEAD DEP BOUNDS =         555.3753

           TOTAL OUT =       51933.8203             TOTAL OUT =         555.3753

            IN - OUT =       3.1250E-02              IN - OUT =      -1.7090E-03

 PERCENT DISCREPANCY =           0.00     PERCENT DISCREPANCY =          -0.00






         TIME SUMMARY AT END OF TIME STEP   62 IN STRESS PERIOD    2
                    SECONDS     MINUTES      HOURS       DAYS        YEARS
                    -----------------------------------------------------------
   TIME STEP LENGTH  86400.      1440.0      24.000      1.0000     2.73785E-03
 STRESS PERIOD TIME 5.35680E+06  89280.      1488.0      62.000     0.16975    
         TOTAL TIME 5.44320E+06  90720.      1512.0      63.000     0.17248    
1

 SOLVING FOR HEAD 

 OUTPUT CONTROL FOR STRESS PERIOD    2   TIME STEP   63
    SAVE HEAD FOR ALL LAYERS
    SAVE DRAWDOWN FOR ALL LAYERS
    SAVE BUDGET
    PRINT HEAD FOR ALL LAYERS
    PRINT BUDGET
 UBDSV1 SAVING "         STORAGE" ON UNIT  53 AT TIME STEP 63, STRESS PERIOD   2
 UBDSV2 SAVING "   CONSTANT HEAD" ON UNIT  53 AT TIME STEP 63, STRESS PERIOD   2
 UBDSV1 SAVING "FLOW RIGHT FACE " ON UNIT  53 AT TIME STEP 63, STRESS PERIOD   2
 UBDSV1 SAVING "FLOW FRONT FACE " ON UNIT  53 AT TIME STEP 63, STRESS PERIOD   2
1
              HEAD IN LAYER   1 AT END OF TIME STEP  63 IN STRESS PERIOD    2
  ---------------------------------------------------------------------------

            1           2           3           4           5           6           7           8           9          10
 ........................................................................................................................
   1    9.991       8.884       7.776       6.669       5.560       4.451       3.342       2.232       1.122      1.1105E-02
   2    9.991       8.884       7.776       6.669       5.560       4.451       3.342       2.232       1.122      1.1105E-02
   3    9.991       8.884       7.776       6.669       5.560       4.451       3.342       2.232       1.122      1.1105E-02
   4    9.991       8.884       7.776       6.669       5.560       4.451       3.342       2.232       1.122      1.1105E-02
   5    9.991       8.884       7.776       6.669       5.560       4.451       3.342       2.232       1.122      1.1105E-02
   6    9.991       8.884       7.776       6.669       5.560       4.451       3.342       2.232       1.122      1.1105E-02
   7    9.991       8.884       7.776       6.669       5.560       4.451       3.342       2.232       1.122      1.1105E-02
   8    9.991       8.884       7.776       6.669       5.560       4.451       3.342       2.232       1.122      1.1105E-02
   9    9.991       8.884       7.776       6.669       5.560       4.451       3.342       2.232       1.122      1.1105E-02
  10    9.991       8.884       7.776       6.669       5.560       4.451       3.342       2.232       1.122      1.1105E-02

 HEAD WILL BE SAVED ON UNIT   51 AT END OF TIME STEP   63, STRESS PERIOD    2

 DRAWDOWN WILL BE SAVED ON UNIT   52 AT END OF TIME STEP   63, STRESS PERIOD    2
1
  VOLUMETRIC BUDGET FOR ENTIRE MODEL AT END OF TIME STEP   63, STRESS PERIOD   2
  ------------------------------------------------------------------------------

     CUMULATIVE VOLUMES      L**3       RATES FOR THIS TIME STEP      L**3/T
     ------------------                 ------------------------

           IN:                                      IN:
           ---                                      ---
             STORAGE =       24981.2754               STORAGE =           1.6943
       CONSTANT HEAD =           0.0000         CONSTANT HEAD =           0.0000
               WELLS =           0.0000                 WELLS =           0.0000
     HEAD DEP BOUNDS =       27507.8438       HEAD DEP BOUNDS =         553.5762

            TOTAL IN =       52489.1172              TOTAL IN =         555.2705

          OUT:                                     OUT:
          ----                                     ----
             STORAGE =           0.0000               STORAGE =           0.0000
       CONSTANT HEAD =           0.0000         CONSTANT HEAD =           0.0000
               WELLS =           0.0000                 WELLS =           0.0000
     HEAD DEP BOUNDS =       52489.0938       HEAD DEP BOUNDS =         555.2735

           TOTAL OUT =       52489.0938             TOTAL OUT =         555.2735

            IN - OUT =       2.3438E-02              IN - OUT =      -2.9907E-03

 PERCENT DISCREPANCY =           0.00     PERCENT DISCREPANCY =          -0.00






         TIME SUMMARY AT END OF TIME STEP   63 IN STRESS PERIOD    2
                    SECONDS     MINUTES      HOURS       DAYS        YEARS
                    -----------------------------------------------------------
   TIME STEP LENGTH  86400.      1440.0      24.000      1.0000     2.73785E-03
 STRESS PERIOD TIME 5.44320E+06  90720.      1512.0      63.000     0.17248    
         TOTAL TIME 5.52960E+06  92160.      1536.0      64.000     0.17522    
1

 SOLVING FOR HEAD 

 OUTPUT CONTROL FOR STRESS PERIOD    2   TIME STEP   64
    SAVE HEAD FOR ALL LAYERS
    SAVE DRAWDOWN FOR ALL LAYERS
    SAVE BUDGET
    PRINT HEAD FOR ALL LAYERS
    PRINT BUDGET
 UBDSV1 SAVING "         STORAGE" ON UNIT  53 AT TIME STEP 64, STRESS PERIOD   2
 UBDSV2 SAVING "   CONSTANT HEAD" ON UNIT  53 AT TIME STEP 64, STRESS PERIOD   2
 UBDSV1 SAVING "FLOW RIGHT FACE " ON UNIT  53 AT TIME STEP 64, STRESS PERIOD   2
 UBDSV1 SAVING "FLOW FRONT FACE " ON UNIT  53 AT TIME STEP 64, STRESS PERIOD   2
1
              HEAD IN LAYER   1 AT END OF TIME STEP  64 IN STRESS PERIOD    2
  ---------------------------------------------------------------------------

            1           2           3           4           5           6           7           8           9          10
 ........................................................................................................................
   1    9.991       8.883       7.776       6.668       5.560       4.451       3.341       2.232       1.121      1.1104E-02
   2    9.991       8.883       7.776       6.668       5.560       4.451       3.341       2.232       1.121      1.1104E-02
   3    9.991       8.883       7.776       6.668       5.560       4.451       3.341       2.232       1.121      1.1104E-02
   4    9.991       8.883       7.776       6.668       5.560       4.451       3.341       2.232       1.121      1.1104E-02
   5    9.991       8.883       7.776       6.668       5.560       4.451       3.341       2.232       1.121      1.1104E-02
   6    9.991       8.883       7.776       6.668       5.560       4.451       3.341       2.232       1.121      1.1104E-02
   7    9.991       8.883       7.776       6.668       5.560       4.451       3.341       2.232       1.121      1.1104E-02
   8    9.991       8.883       7.776       6.668       5.560       4.451       3.341       2.232       1.121      1.1104E-02
   9    9.991       8.883       7.776       6.668       5.560       4.451       3.341       2.232       1.121      1.1104E-02
  10    9.991       8.883       7.776       6.668       5.560       4.451       3.341       2.232       1.121      1.1104E-02

 HEAD WILL BE SAVED ON UNIT   51 AT END OF TIME STEP   64, STRESS PERIOD    2

 DRAWDOWN WILL BE SAVED ON UNIT   52 AT END OF TIME STEP   64, STRESS PERIOD    2
1
  VOLUMETRIC BUDGET FOR ENTIRE MODEL AT END OF TIME STEP   64, STRESS PERIOD   2
  ------------------------------------------------------------------------------

     CUMULATIVE VOLUMES      L**3       RATES FOR THIS TIME STEP      L**3/T
     ------------------                 ------------------------

           IN:                                      IN:
           ---                                      ---
             STORAGE =       24982.7891               STORAGE =           1.5134
       CONSTANT HEAD =           0.0000         CONSTANT HEAD =           0.0000
               WELLS =           0.0000                 WELLS =           0.0000
     HEAD DEP BOUNDS =       28061.5098       HEAD DEP BOUNDS =         553.6663

            TOTAL IN =       53044.2969              TOTAL IN =         555.1797

          OUT:                                     OUT:
          ----                                     ----
             STORAGE =           0.0000               STORAGE =           0.0000
       CONSTANT HEAD =           0.0000         CONSTANT HEAD =           0.0000
               WELLS =           0.0000                 WELLS =           0.0000
     HEAD DEP BOUNDS =       53044.2773       HEAD DEP BOUNDS =         555.1826

           TOTAL OUT =       53044.2773             TOTAL OUT =         555.1826

            IN - OUT =       1.9531E-02              IN - OUT =      -2.9297E-03

 PERCENT DISCREPANCY =           0.00     PERCENT DISCREPANCY =          -0.00






         TIME SUMMARY AT END OF TIME STEP   64 IN STRESS PERIOD    2
                    SECONDS     MINUTES      HOURS       DAYS        YEARS
                    -----------------------------------------------------------
   TIME STEP LENGTH  86400.      1440.0      24.000      1.0000     2.73785E-03
 STRESS PERIOD TIME 5.52960E+06  92160.      1536.0      64.000     0.17522    
         TOTAL TIME 5.61600E+06  93600.      1560.0      65.000     0.17796    
1

 SOLVING FOR HEAD 

 OUTPUT CONTROL FOR STRESS PERIOD    2   TIME STEP   65
    SAVE HEAD FOR ALL LAYERS
    SAVE DRAWDOWN FOR ALL LAYERS
    SAVE BUDGET
    PRINT HEAD FOR ALL LAYERS
    PRINT BUDGET
 UBDSV1 SAVING "         STORAGE" ON UNIT  53 AT TIME STEP 65, STRESS PERIOD   2
 UBDSV2 SAVING "   CONSTANT HEAD" ON UNIT  53 AT TIME STEP 65, STRESS PERIOD   2
 UBDSV1 SAVING "FLOW RIGHT FACE " ON UNIT  53 AT TIME STEP 65, STRESS PERIOD   2
 UBDSV1 SAVING "FLOW FRONT FACE " ON UNIT  53 AT TIME STEP 65, STRESS PERIOD   2
1
              HEAD IN LAYER   1 AT END OF TIME STEP  65 IN STRESS PERIOD    2
  ---------------------------------------------------------------------------

            1           2           3           4           5           6           7           8           9          10
 ........................................................................................................................
   1    9.991       8.883       7.776       6.668       5.559       4.450       3.341       2.231       1.121      1.1102E-02
   2    9.991       8.883       7.776       6.668       5.559       4.450       3.341       2.231       1.121      1.1102E-02
   3    9.991       8.883       7.776       6.668       5.559       4.450       3.341       2.231       1.121      1.1102E-02
   4    9.991       8.883       7.776       6.668       5.559       4.450       3.341       2.231       1.121      1.1102E-02
   5    9.991       8.883       7.776       6.668       5.559       4.450       3.341       2.231       1.121      1.1102E-02
   6    9.991       8.883       7.776       6.668       5.559       4.450       3.341       2.231       1.121      1.1102E-02
   7    9.991       8.883       7.776       6.668       5.559       4.450       3.341       2.231       1.121      1.1102E-02
   8    9.991       8.883       7.776       6.668       5.559       4.450       3.341       2.231       1.121      1.1102E-02
   9    9.991       8.883       7.776       6.668       5.559       4.450       3.341       2.231       1.121      1.1102E-02
  10    9.991       8.883       7.776       6.668       5.559       4.450       3.341       2.231       1.121      1.1102E-02

 HEAD WILL BE SAVED ON UNIT   51 AT END OF TIME STEP   65, STRESS PERIOD    2

 DRAWDOWN WILL BE SAVED ON UNIT   52 AT END OF TIME STEP   65, STRESS PERIOD    2
1
  VOLUMETRIC BUDGET FOR ENTIRE MODEL AT END OF TIME STEP   65, STRESS PERIOD   2
  ------------------------------------------------------------------------------

     CUMULATIVE VOLUMES      L**3       RATES FOR THIS TIME STEP      L**3/T
     ------------------                 ------------------------

           IN:                                      IN:
           ---                                      ---
             STORAGE =       24984.1387               STORAGE =           1.3498
       CONSTANT HEAD =           0.0000         CONSTANT HEAD =           0.0000
               WELLS =           0.0000                 WELLS =           0.0000
     HEAD DEP BOUNDS =       28615.2559       HEAD DEP BOUNDS =         553.7466

            TOTAL IN =       53599.3945              TOTAL IN =         555.0965

          OUT:                                     OUT:
          ----                                     ----
             STORAGE =           0.0000               STORAGE =           0.0000
       CONSTANT HEAD =           0.0000         CONSTANT HEAD =           0.0000
               WELLS =           0.0000                 WELLS =           0.0000
     HEAD DEP BOUNDS =       53599.3789       HEAD DEP BOUNDS =         555.1015

           TOTAL OUT =       53599.3789             TOTAL OUT =         555.1015

            IN - OUT =       1.5625E-02              IN - OUT =      -5.0049E-03

 PERCENT DISCREPANCY =           0.00     PERCENT DISCREPANCY =          -0.00






         TIME SUMMARY AT END OF TIME STEP   65 IN STRESS PERIOD    2
                    SECONDS     MINUTES      HOURS       DAYS        YEARS
                    -----------------------------------------------------------
   TIME STEP LENGTH  86400.      1440.0      24.000      1.0000     2.73785E-03
 STRESS PERIOD TIME 5.61600E+06  93600.      1560.0      65.000     0.17796    
         TOTAL TIME 5.70240E+06  95040.      1584.0      66.000     0.18070    
1

 SOLVING FOR HEAD 

 OUTPUT CONTROL FOR STRESS PERIOD    2   TIME STEP   66
    SAVE HEAD FOR ALL LAYERS
    SAVE DRAWDOWN FOR ALL LAYERS
    SAVE BUDGET
    PRINT HEAD FOR ALL LAYERS
    PRINT BUDGET
 UBDSV1 SAVING "         STORAGE" ON UNIT  53 AT TIME STEP 66, STRESS PERIOD   2
 UBDSV2 SAVING "   CONSTANT HEAD" ON UNIT  53 AT TIME STEP 66, STRESS PERIOD   2
 UBDSV1 SAVING "FLOW RIGHT FACE " ON UNIT  53 AT TIME STEP 66, STRESS PERIOD   2
 UBDSV1 SAVING "FLOW FRONT FACE " ON UNIT  53 AT TIME STEP 66, STRESS PERIOD   2
1
              HEAD IN LAYER   1 AT END OF TIME STEP  66 IN STRESS PERIOD    2
  ---------------------------------------------------------------------------

            1           2           3           4           5           6           7           8           9          10
 ........................................................................................................................
   1    9.991       8.883       7.775       6.667       5.559       4.450       3.341       2.231       1.121      1.1101E-02
   2    9.991       8.883       7.775       6.667       5.559       4.450       3.341       2.231       1.121      1.1101E-02
   3    9.991       8.883       7.775       6.667       5.559       4.450       3.341       2.231       1.121      1.1101E-02
   4    9.991       8.883       7.775       6.667       5.559       4.450       3.341       2.231       1.121      1.1101E-02
   5    9.991       8.883       7.775       6.667       5.559       4.450       3.341       2.231       1.121      1.1101E-02
   6    9.991       8.883       7.775       6.667       5.559       4.450       3.341       2.231       1.121      1.1101E-02
   7    9.991       8.883       7.775       6.667       5.559       4.450       3.341       2.231       1.121      1.1101E-02
   8    9.991       8.883       7.775       6.667       5.559       4.450       3.341       2.231       1.121      1.1101E-02
   9    9.991       8.883       7.775       6.667       5.559       4.450       3.341       2.231       1.121      1.1101E-02
  10    9.991       8.883       7.775       6.667       5.559       4.450       3.341       2.231       1.121      1.1101E-02

 HEAD WILL BE SAVED ON UNIT   51 AT END OF TIME STEP   66, STRESS PERIOD    2

 DRAWDOWN WILL BE SAVED ON UNIT   52 AT END OF TIME STEP   66, STRESS PERIOD    2
1
  VOLUMETRIC BUDGET FOR ENTIRE MODEL AT END OF TIME STEP   66, STRESS PERIOD   2
  ------------------------------------------------------------------------------

     CUMULATIVE VOLUMES      L**3       RATES FOR THIS TIME STEP      L**3/T
     ------------------                 ------------------------

           IN:                                      IN:
           ---                                      ---
             STORAGE =       24985.3438               STORAGE =           1.2060
       CONSTANT HEAD =           0.0000         CONSTANT HEAD =           0.0000
               WELLS =           0.0000                 WELLS =           0.0000
     HEAD DEP BOUNDS =       29169.0742       HEAD DEP BOUNDS =         553.8183

            TOTAL IN =       54154.4180              TOTAL IN =         555.0243

          OUT:                                     OUT:
          ----                                     ----
             STORAGE =           0.0000               STORAGE =           0.0000
       CONSTANT HEAD =           0.0000         CONSTANT HEAD =           0.0000
               WELLS =           0.0000                 WELLS =           0.0000
     HEAD DEP BOUNDS =       54154.4062       HEAD DEP BOUNDS =         555.0291

           TOTAL OUT =       54154.4062             TOTAL OUT =         555.0291

            IN - OUT =       1.1719E-02              IN - OUT =      -4.7607E-03

 PERCENT DISCREPANCY =           0.00     PERCENT DISCREPANCY =          -0.00






         TIME SUMMARY AT END OF TIME STEP   66 IN STRESS PERIOD    2
                    SECONDS     MINUTES      HOURS       DAYS        YEARS
                    -----------------------------------------------------------
   TIME STEP LENGTH  86400.      1440.0      24.000      1.0000     2.73785E-03
 STRESS PERIOD TIME 5.70240E+06  95040.      1584.0      66.000     0.18070    
         TOTAL TIME 5.78880E+06  96480.      1608.0      67.000     0.18344    
1

 SOLVING FOR HEAD 

 OUTPUT CONTROL FOR STRESS PERIOD    2   TIME STEP   67
    SAVE HEAD FOR ALL LAYERS
    SAVE DRAWDOWN FOR ALL LAYERS
    SAVE BUDGET
    PRINT HEAD FOR ALL LAYERS
    PRINT BUDGET
 UBDSV1 SAVING "         STORAGE" ON UNIT  53 AT TIME STEP 67, STRESS PERIOD   2
 UBDSV2 SAVING "   CONSTANT HEAD" ON UNIT  53 AT TIME STEP 67, STRESS PERIOD   2
 UBDSV1 SAVING "FLOW RIGHT FACE " ON UNIT  53 AT TIME STEP 67, STRESS PERIOD   2
 UBDSV1 SAVING "FLOW FRONT FACE " ON UNIT  53 AT TIME STEP 67, STRESS PERIOD   2
1
              HEAD IN LAYER   1 AT END OF TIME STEP  67 IN STRESS PERIOD    2
  ---------------------------------------------------------------------------

            1           2           3           4           5           6           7           8           9          10
 ........................................................................................................................
   1    9.991       8.883       7.775       6.667       5.558       4.450       3.340       2.231       1.121      1.1099E-02
   2    9.991       8.883       7.775       6.667       5.558       4.450       3.340       2.231       1.121      1.1099E-02
   3    9.991       8.883       7.775       6.667       5.558       4.450       3.340       2.231       1.121      1.1099E-02
   4    9.991       8.883       7.775       6.667       5.558       4.450       3.340       2.231       1.121      1.1099E-02
   5    9.991       8.883       7.775       6.667       5.558       4.450       3.340       2.231       1.121      1.1099E-02
   6    9.991       8.883       7.775       6.667       5.558       4.450       3.340       2.231       1.121      1.1099E-02
   7    9.991       8.883       7.775       6.667       5.558       4.450       3.340       2.231       1.121      1.1099E-02
   8    9.991       8.883       7.775       6.667       5.558       4.450       3.340       2.231       1.121      1.1099E-02
   9    9.991       8.883       7.775       6.667       5.558       4.450       3.340       2.231       1.121      1.1099E-02
  10    9.991       8.883       7.775       6.667       5.558       4.450       3.340       2.231       1.121      1.1099E-02

 HEAD WILL BE SAVED ON UNIT   51 AT END OF TIME STEP   67, STRESS PERIOD    2

 DRAWDOWN WILL BE SAVED ON UNIT   52 AT END OF TIME STEP   67, STRESS PERIOD    2
1
  VOLUMETRIC BUDGET FOR ENTIRE MODEL AT END OF TIME STEP   67, STRESS PERIOD   2
  ------------------------------------------------------------------------------

     CUMULATIVE VOLUMES      L**3       RATES FOR THIS TIME STEP      L**3/T
     ------------------                 ------------------------

           IN:                                      IN:
           ---                                      ---
             STORAGE =       24986.4199               STORAGE =           1.0767
       CONSTANT HEAD =           0.0000         CONSTANT HEAD =           0.0000
               WELLS =           0.0000                 WELLS =           0.0000
     HEAD DEP BOUNDS =       29722.9570       HEAD DEP BOUNDS =         553.8823

            TOTAL IN =       54709.3750              TOTAL IN =         554.9590

          OUT:                                     OUT:
          ----                                     ----
             STORAGE =           0.0000               STORAGE =           0.0000
       CONSTANT HEAD =           0.0000         CONSTANT HEAD =           0.0000
               WELLS =           0.0000                 WELLS =           0.0000
     HEAD DEP BOUNDS =       54709.3711       HEAD DEP BOUNDS =         554.9644

           TOTAL OUT =       54709.3711             TOTAL OUT =         554.9644

            IN - OUT =       3.9062E-03              IN - OUT =      -5.3711E-03

 PERCENT DISCREPANCY =           0.00     PERCENT DISCREPANCY =          -0.00






         TIME SUMMARY AT END OF TIME STEP   67 IN STRESS PERIOD    2
                    SECONDS     MINUTES      HOURS       DAYS        YEARS
                    -----------------------------------------------------------
   TIME STEP LENGTH  86400.      1440.0      24.000      1.0000     2.73785E-03
 STRESS PERIOD TIME 5.78880E+06  96480.      1608.0      67.000     0.18344    
         TOTAL TIME 5.87520E+06  97920.      1632.0      68.000     0.18617    
1

 SOLVING FOR HEAD 

 OUTPUT CONTROL FOR STRESS PERIOD    2   TIME STEP   68
    SAVE HEAD FOR ALL LAYERS
    SAVE DRAWDOWN FOR ALL LAYERS
    SAVE BUDGET
    PRINT HEAD FOR ALL LAYERS
    PRINT BUDGET
 UBDSV1 SAVING "         STORAGE" ON UNIT  53 AT TIME STEP 68, STRESS PERIOD   2
 UBDSV2 SAVING "   CONSTANT HEAD" ON UNIT  53 AT TIME STEP 68, STRESS PERIOD   2
 UBDSV1 SAVING "FLOW RIGHT FACE " ON UNIT  53 AT TIME STEP 68, STRESS PERIOD   2
 UBDSV1 SAVING "FLOW FRONT FACE " ON UNIT  53 AT TIME STEP 68, STRESS PERIOD   2
1
              HEAD IN LAYER   1 AT END OF TIME STEP  68 IN STRESS PERIOD    2
  ---------------------------------------------------------------------------

            1           2           3           4           5           6           7           8           9          10
 ........................................................................................................................
   1    9.991       8.883       7.775       6.667       5.558       4.449       3.340       2.231       1.121      1.1098E-02
   2    9.991       8.883       7.775       6.667       5.558       4.449       3.340       2.231       1.121      1.1098E-02
   3    9.991       8.883       7.775       6.667       5.558       4.449       3.340       2.231       1.121      1.1098E-02
   4    9.991       8.883       7.775       6.667       5.558       4.449       3.340       2.231       1.121      1.1098E-02
   5    9.991       8.883       7.775       6.667       5.558       4.449       3.340       2.231       1.121      1.1098E-02
   6    9.991       8.883       7.775       6.667       5.558       4.449       3.340       2.231       1.121      1.1098E-02
   7    9.991       8.883       7.775       6.667       5.558       4.449       3.340       2.231       1.121      1.1098E-02
   8    9.991       8.883       7.775       6.667       5.558       4.449       3.340       2.231       1.121      1.1098E-02
   9    9.991       8.883       7.775       6.667       5.558       4.449       3.340       2.231       1.121      1.1098E-02
  10    9.991       8.883       7.775       6.667       5.558       4.449       3.340       2.231       1.121      1.1098E-02

 HEAD WILL BE SAVED ON UNIT   51 AT END OF TIME STEP   68, STRESS PERIOD    2

 DRAWDOWN WILL BE SAVED ON UNIT   52 AT END OF TIME STEP   68, STRESS PERIOD    2
1
  VOLUMETRIC BUDGET FOR ENTIRE MODEL AT END OF TIME STEP   68, STRESS PERIOD   2
  ------------------------------------------------------------------------------

     CUMULATIVE VOLUMES      L**3       RATES FOR THIS TIME STEP      L**3/T
     ------------------                 ------------------------

           IN:                                      IN:
           ---                                      ---
             STORAGE =       24987.3809               STORAGE =           0.9607
       CONSTANT HEAD =           0.0000         CONSTANT HEAD =           0.0000
               WELLS =           0.0000                 WELLS =           0.0000
     HEAD DEP BOUNDS =       30276.8965       HEAD DEP BOUNDS =         553.9396

            TOTAL IN =       55264.2773              TOTAL IN =         554.9003

          OUT:                                     OUT:
          ----                                     ----
             STORAGE =           0.0000               STORAGE =           0.0000
       CONSTANT HEAD =           0.0000         CONSTANT HEAD =           0.0000
               WELLS =           0.0000                 WELLS =           0.0000
     HEAD DEP BOUNDS =       55264.2773       HEAD DEP BOUNDS =         554.9067

           TOTAL OUT =       55264.2773             TOTAL OUT =         554.9067

            IN - OUT =           0.0000              IN - OUT =      -6.3477E-03

 PERCENT DISCREPANCY =           0.00     PERCENT DISCREPANCY =          -0.00






         TIME SUMMARY AT END OF TIME STEP   68 IN STRESS PERIOD    2
                    SECONDS     MINUTES      HOURS       DAYS        YEARS
                    -----------------------------------------------------------
   TIME STEP LENGTH  86400.      1440.0      24.000      1.0000     2.73785E-03
 STRESS PERIOD TIME 5.87520E+06  97920.      1632.0      68.000     0.18617    
         TOTAL TIME 5.96160E+06  99360.      1656.0      69.000     0.18891    
1

 SOLVING FOR HEAD 

 OUTPUT CONTROL FOR STRESS PERIOD    2   TIME STEP   69
    SAVE HEAD FOR ALL LAYERS
    SAVE DRAWDOWN FOR ALL LAYERS
    SAVE BUDGET
    PRINT HEAD FOR ALL LAYERS
    PRINT BUDGET
 UBDSV1 SAVING "         STORAGE" ON UNIT  53 AT TIME STEP 69, STRESS PERIOD   2
 UBDSV2 SAVING "   CONSTANT HEAD" ON UNIT  53 AT TIME STEP 69, STRESS PERIOD   2
 UBDSV1 SAVING "FLOW RIGHT FACE " ON UNIT  53 AT TIME STEP 69, STRESS PERIOD   2
 UBDSV1 SAVING "FLOW FRONT FACE " ON UNIT  53 AT TIME STEP 69, STRESS PERIOD   2
1
              HEAD IN LAYER   1 AT END OF TIME STEP  69 IN STRESS PERIOD    2
  ---------------------------------------------------------------------------

            1           2           3           4           5           6           7           8           9          10
 ........................................................................................................................
   1    9.991       8.883       7.775       6.666       5.558       4.449       3.340       2.230       1.121      1.1097E-02
   2    9.991       8.883       7.775       6.666       5.558       4.449       3.340       2.230       1.121      1.1097E-02
   3    9.991       8.883       7.775       6.666       5.558       4.449       3.340       2.230       1.121      1.1097E-02
   4    9.991       8.883       7.775       6.666       5.558       4.449       3.340       2.230       1.121      1.1097E-02
   5    9.991       8.883       7.775       6.666       5.558       4.449       3.340       2.230       1.121      1.1097E-02
   6    9.991       8.883       7.775       6.666       5.558       4.449       3.340       2.230       1.121      1.1097E-02
   7    9.991       8.883       7.775       6.666       5.558       4.449       3.340       2.230       1.121      1.1097E-02
   8    9.991       8.883       7.775       6.666       5.558       4.449       3.340       2.230       1.121      1.1097E-02
   9    9.991       8.883       7.775       6.666       5.558       4.449       3.340       2.230       1.121      1.1097E-02
  10    9.991       8.883       7.775       6.666       5.558       4.449       3.340       2.230       1.121      1.1097E-02

 HEAD WILL BE SAVED ON UNIT   51 AT END OF TIME STEP   69, STRESS PERIOD    2

 DRAWDOWN WILL BE SAVED ON UNIT   52 AT END OF TIME STEP   69, STRESS PERIOD    2
1
  VOLUMETRIC BUDGET FOR ENTIRE MODEL AT END OF TIME STEP   69, STRESS PERIOD   2
  ------------------------------------------------------------------------------

     CUMULATIVE VOLUMES      L**3       RATES FOR THIS TIME STEP      L**3/T
     ------------------                 ------------------------

           IN:                                      IN:
           ---                                      ---
             STORAGE =       24988.2383               STORAGE =           0.8572
       CONSTANT HEAD =           0.0000         CONSTANT HEAD =           0.0000
               WELLS =           0.0000                 WELLS =           0.0000
     HEAD DEP BOUNDS =       30830.8867       HEAD DEP BOUNDS =         553.9906

            TOTAL IN =       55819.1250              TOTAL IN =         554.8478

          OUT:                                     OUT:
          ----                                     ----
             STORAGE =           0.0000               STORAGE =           0.0000
       CONSTANT HEAD =           0.0000         CONSTANT HEAD =           0.0000
               WELLS =           0.0000                 WELLS =           0.0000
     HEAD DEP BOUNDS =       55819.1328       HEAD DEP BOUNDS =         554.8552

           TOTAL OUT =       55819.1328             TOTAL OUT =         554.8552

            IN - OUT =      -7.8125E-03              IN - OUT =      -7.3242E-03

 PERCENT DISCREPANCY =          -0.00     PERCENT DISCREPANCY =          -0.00






         TIME SUMMARY AT END OF TIME STEP   69 IN STRESS PERIOD    2
                    SECONDS     MINUTES      HOURS       DAYS        YEARS
                    -----------------------------------------------------------
   TIME STEP LENGTH  86400.      1440.0      24.000      1.0000     2.73785E-03
 STRESS PERIOD TIME 5.96160E+06  99360.      1656.0      69.000     0.18891    
         TOTAL TIME 6.04800E+06 1.00800E+05  1680.0      70.000     0.19165    
1

 SOLVING FOR HEAD 

 OUTPUT CONTROL FOR STRESS PERIOD    2   TIME STEP   70
    SAVE HEAD FOR ALL LAYERS
    SAVE DRAWDOWN FOR ALL LAYERS
    SAVE BUDGET
    PRINT HEAD FOR ALL LAYERS
    PRINT BUDGET
 UBDSV1 SAVING "         STORAGE" ON UNIT  53 AT TIME STEP 70, STRESS PERIOD   2
 UBDSV2 SAVING "   CONSTANT HEAD" ON UNIT  53 AT TIME STEP 70, STRESS PERIOD   2
 UBDSV1 SAVING "FLOW RIGHT FACE " ON UNIT  53 AT TIME STEP 70, STRESS PERIOD   2
 UBDSV1 SAVING "FLOW FRONT FACE " ON UNIT  53 AT TIME STEP 70, STRESS PERIOD   2
1
              HEAD IN LAYER   1 AT END OF TIME STEP  70 IN STRESS PERIOD    2
  ---------------------------------------------------------------------------

            1           2           3           4           5           6           7           8           9          10
 ........................................................................................................................
   1    9.991       8.883       7.774       6.666       5.558       4.449       3.340       2.230       1.121      1.1096E-02
   2    9.991       8.883       7.774       6.666       5.558       4.449       3.340       2.230       1.121      1.1096E-02
   3    9.991       8.883       7.774       6.666       5.558       4.449       3.340       2.230       1.121      1.1096E-02
   4    9.991       8.883       7.774       6.666       5.558       4.449       3.340       2.230       1.121      1.1096E-02
   5    9.991       8.883       7.774       6.666       5.558       4.449       3.340       2.230       1.121      1.1096E-02
   6    9.991       8.883       7.774       6.666       5.558       4.449       3.340       2.230       1.121      1.1096E-02
   7    9.991       8.883       7.774       6.666       5.558       4.449       3.340       2.230       1.121      1.1096E-02
   8    9.991       8.883       7.774       6.666       5.558       4.449       3.340       2.230       1.121      1.1096E-02
   9    9.991       8.883       7.774       6.666       5.558       4.449       3.340       2.230       1.121      1.1096E-02
  10    9.991       8.883       7.774       6.666       5.558       4.449       3.340       2.230       1.121      1.1096E-02

 HEAD WILL BE SAVED ON UNIT   51 AT END OF TIME STEP   70, STRESS PERIOD    2

 DRAWDOWN WILL BE SAVED ON UNIT   52 AT END OF TIME STEP   70, STRESS PERIOD    2
1
  VOLUMETRIC BUDGET FOR ENTIRE MODEL AT END OF TIME STEP   70, STRESS PERIOD   2
  ------------------------------------------------------------------------------

     CUMULATIVE VOLUMES      L**3       RATES FOR THIS TIME STEP      L**3/T
     ------------------                 ------------------------

           IN:                                      IN:
           ---                                      ---
             STORAGE =       24989.0039               STORAGE =           0.7653
       CONSTANT HEAD =           0.0000         CONSTANT HEAD =           0.0000
               WELLS =           0.0000                 WELLS =           0.0000
     HEAD DEP BOUNDS =       31384.9219       HEAD DEP BOUNDS =         554.0360

            TOTAL IN =       56373.9258              TOTAL IN =         554.8013

          OUT:                                     OUT:
          ----                                     ----
             STORAGE =           0.0000               STORAGE =           0.0000
       CONSTANT HEAD =           0.0000         CONSTANT HEAD =           0.0000
               WELLS =           0.0000                 WELLS =           0.0000
     HEAD DEP BOUNDS =       56373.9414       HEAD DEP BOUNDS =         554.8091

           TOTAL OUT =       56373.9414             TOTAL OUT =         554.8091

            IN - OUT =      -1.5625E-02              IN - OUT =      -7.8125E-03

 PERCENT DISCREPANCY =          -0.00     PERCENT DISCREPANCY =          -0.00






         TIME SUMMARY AT END OF TIME STEP   70 IN STRESS PERIOD    2
                    SECONDS     MINUTES      HOURS       DAYS        YEARS
                    -----------------------------------------------------------
   TIME STEP LENGTH  86400.      1440.0      24.000      1.0000     2.73785E-03
 STRESS PERIOD TIME 6.04800E+06 1.00800E+05  1680.0      70.000     0.19165    
         TOTAL TIME 6.13440E+06 1.02240E+05  1704.0      71.000     0.19439    
1

 SOLVING FOR HEAD 

 OUTPUT CONTROL FOR STRESS PERIOD    2   TIME STEP   71
    SAVE HEAD FOR ALL LAYERS
    SAVE DRAWDOWN FOR ALL LAYERS
    SAVE BUDGET
    PRINT HEAD FOR ALL LAYERS
    PRINT BUDGET
 UBDSV1 SAVING "         STORAGE" ON UNIT  53 AT TIME STEP 71, STRESS PERIOD   2
 UBDSV2 SAVING "   CONSTANT HEAD" ON UNIT  53 AT TIME STEP 71, STRESS PERIOD   2
 UBDSV1 SAVING "FLOW RIGHT FACE " ON UNIT  53 AT TIME STEP 71, STRESS PERIOD   2
 UBDSV1 SAVING "FLOW FRONT FACE " ON UNIT  53 AT TIME STEP 71, STRESS PERIOD   2
1
              HEAD IN LAYER   1 AT END OF TIME STEP  71 IN STRESS PERIOD    2
  ---------------------------------------------------------------------------

            1           2           3           4           5           6           7           8           9          10
 ........................................................................................................................
   1    9.991       8.883       7.774       6.666       5.557       4.448       3.339       2.230       1.121      1.1095E-02
   2    9.991       8.883       7.774       6.666       5.557       4.448       3.339       2.230       1.121      1.1095E-02
   3    9.991       8.883       7.774       6.666       5.557       4.448       3.339       2.230       1.121      1.1095E-02
   4    9.991       8.883       7.774       6.666       5.557       4.448       3.339       2.230       1.121      1.1095E-02
   5    9.991       8.883       7.774       6.666       5.557       4.448       3.339       2.230       1.121      1.1095E-02
   6    9.991       8.883       7.774       6.666       5.557       4.448       3.339       2.230       1.121      1.1095E-02
   7    9.991       8.883       7.774       6.666       5.557       4.448       3.339       2.230       1.121      1.1095E-02
   8    9.991       8.883       7.774       6.666       5.557       4.448       3.339       2.230       1.121      1.1095E-02
   9    9.991       8.883       7.774       6.666       5.557       4.448       3.339       2.230       1.121      1.1095E-02
  10    9.991       8.883       7.774       6.666       5.557       4.448       3.339       2.230       1.121      1.1095E-02

 HEAD WILL BE SAVED ON UNIT   51 AT END OF TIME STEP   71, STRESS PERIOD    2

 DRAWDOWN WILL BE SAVED ON UNIT   52 AT END OF TIME STEP   71, STRESS PERIOD    2
1
  VOLUMETRIC BUDGET FOR ENTIRE MODEL AT END OF TIME STEP   71, STRESS PERIOD   2
  ------------------------------------------------------------------------------

     CUMULATIVE VOLUMES      L**3       RATES FOR THIS TIME STEP      L**3/T
     ------------------                 ------------------------

           IN:                                      IN:
           ---                                      ---
             STORAGE =       24989.6875               STORAGE =           0.6842
       CONSTANT HEAD =           0.0000         CONSTANT HEAD =           0.0000
               WELLS =           0.0000                 WELLS =           0.0000
     HEAD DEP BOUNDS =       31938.9980       HEAD DEP BOUNDS =         554.0767

            TOTAL IN =       56928.6875              TOTAL IN =         554.7609

          OUT:                                     OUT:
          ----                                     ----
             STORAGE =           0.0000               STORAGE =           0.0000
       CONSTANT HEAD =           0.0000         CONSTANT HEAD =           0.0000
               WELLS =           0.0000                 WELLS =           0.0000
     HEAD DEP BOUNDS =       56928.7109       HEAD DEP BOUNDS =         554.7681

           TOTAL OUT =       56928.7109             TOTAL OUT =         554.7681

            IN - OUT =      -2.3438E-02              IN - OUT =      -7.1411E-03

 PERCENT DISCREPANCY =          -0.00     PERCENT DISCREPANCY =          -0.00






         TIME SUMMARY AT END OF TIME STEP   71 IN STRESS PERIOD    2
                    SECONDS     MINUTES      HOURS       DAYS        YEARS
                    -----------------------------------------------------------
   TIME STEP LENGTH  86400.      1440.0      24.000      1.0000     2.73785E-03
 STRESS PERIOD TIME 6.13440E+06 1.02240E+05  1704.0      71.000     0.19439    
         TOTAL TIME 6.22080E+06 1.03680E+05  1728.0      72.000     0.19713    
1

 SOLVING FOR HEAD 

 OUTPUT CONTROL FOR STRESS PERIOD    2   TIME STEP   72
    SAVE HEAD FOR ALL LAYERS
    SAVE DRAWDOWN FOR ALL LAYERS
    SAVE BUDGET
    PRINT HEAD FOR ALL LAYERS
    PRINT BUDGET
 UBDSV1 SAVING "         STORAGE" ON UNIT  53 AT TIME STEP 72, STRESS PERIOD   2
 UBDSV2 SAVING "   CONSTANT HEAD" ON UNIT  53 AT TIME STEP 72, STRESS PERIOD   2
 UBDSV1 SAVING "FLOW RIGHT FACE " ON UNIT  53 AT TIME STEP 72, STRESS PERIOD   2
 UBDSV1 SAVING "FLOW FRONT FACE " ON UNIT  53 AT TIME STEP 72, STRESS PERIOD   2
1
              HEAD IN LAYER   1 AT END OF TIME STEP  72 IN STRESS PERIOD    2
  ---------------------------------------------------------------------------

            1           2           3           4           5           6           7           8           9          10
 ........................................................................................................................
   1    9.991       8.883       7.774       6.666       5.557       4.448       3.339       2.230       1.121      1.1095E-02
   2    9.991       8.883       7.774       6.666       5.557       4.448       3.339       2.230       1.121      1.1095E-02
   3    9.991       8.883       7.774       6.666       5.557       4.448       3.339       2.230       1.121      1.1095E-02
   4    9.991       8.883       7.774       6.666       5.557       4.448       3.339       2.230       1.121      1.1095E-02
   5    9.991       8.883       7.774       6.666       5.557       4.448       3.339       2.230       1.121      1.1095E-02
   6    9.991       8.883       7.774       6.666       5.557       4.448       3.339       2.230       1.121      1.1095E-02
   7    9.991       8.883       7.774       6.666       5.557       4.448       3.339       2.230       1.121      1.1095E-02
   8    9.991       8.883       7.774       6.666       5.557       4.448       3.339       2.230       1.121      1.1095E-02
   9    9.991       8.883       7.774       6.666       5.557       4.448       3.339       2.230       1.121      1.1095E-02
  10    9.991       8.883       7.774       6.666       5.557       4.448       3.339       2.230       1.121      1.1095E-02

 HEAD WILL BE SAVED ON UNIT   51 AT END OF TIME STEP   72, STRESS PERIOD    2

 DRAWDOWN WILL BE SAVED ON UNIT   52 AT END OF TIME STEP   72, STRESS PERIOD    2
1
  VOLUMETRIC BUDGET FOR ENTIRE MODEL AT END OF TIME STEP   72, STRESS PERIOD   2
  ------------------------------------------------------------------------------

     CUMULATIVE VOLUMES      L**3       RATES FOR THIS TIME STEP      L**3/T
     ------------------                 ------------------------

           IN:                                      IN:
           ---                                      ---
             STORAGE =       24990.2969               STORAGE =           0.6103
       CONSTANT HEAD =           0.0000         CONSTANT HEAD =           0.0000
               WELLS =           0.0000                 WELLS =           0.0000
     HEAD DEP BOUNDS =       32493.1113       HEAD DEP BOUNDS =         554.1131

            TOTAL IN =       57483.4062              TOTAL IN =         554.7234

          OUT:                                     OUT:
          ----                                     ----
             STORAGE =           0.0000               STORAGE =           0.0000
       CONSTANT HEAD =           0.0000         CONSTANT HEAD =           0.0000
               WELLS =           0.0000                 WELLS =           0.0000
     HEAD DEP BOUNDS =       57483.4414       HEAD DEP BOUNDS =         554.7314

           TOTAL OUT =       57483.4414             TOTAL OUT =         554.7314

            IN - OUT =      -3.5156E-02              IN - OUT =      -7.9956E-03

 PERCENT DISCREPANCY =          -0.00     PERCENT DISCREPANCY =          -0.00






         TIME SUMMARY AT END OF TIME STEP   72 IN STRESS PERIOD    2
                    SECONDS     MINUTES      HOURS       DAYS        YEARS
                    -----------------------------------------------------------
   TIME STEP LENGTH  86400.      1440.0      24.000      1.0000     2.73785E-03
 STRESS PERIOD TIME 6.22080E+06 1.03680E+05  1728.0      72.000     0.19713    
         TOTAL TIME 6.30720E+06 1.05120E+05  1752.0      73.000     0.19986    
1

 SOLVING FOR HEAD 

 OUTPUT CONTROL FOR STRESS PERIOD    2   TIME STEP   73
    SAVE HEAD FOR ALL LAYERS
    SAVE DRAWDOWN FOR ALL LAYERS
    SAVE BUDGET
    PRINT HEAD FOR ALL LAYERS
    PRINT BUDGET
 UBDSV1 SAVING "         STORAGE" ON UNIT  53 AT TIME STEP 73, STRESS PERIOD   2
 UBDSV2 SAVING "   CONSTANT HEAD" ON UNIT  53 AT TIME STEP 73, STRESS PERIOD   2
 UBDSV1 SAVING "FLOW RIGHT FACE " ON UNIT  53 AT TIME STEP 73, STRESS PERIOD   2
 UBDSV1 SAVING "FLOW FRONT FACE " ON UNIT  53 AT TIME STEP 73, STRESS PERIOD   2
1
              HEAD IN LAYER   1 AT END OF TIME STEP  73 IN STRESS PERIOD    2
  ---------------------------------------------------------------------------

            1           2           3           4           5           6           7           8           9          10
 ........................................................................................................................
   1    9.991       8.882       7.774       6.666       5.557       4.448       3.339       2.230       1.120      1.1094E-02
   2    9.991       8.882       7.774       6.666       5.557       4.448       3.339       2.230       1.120      1.1094E-02
   3    9.991       8.882       7.774       6.666       5.557       4.448       3.339       2.230       1.120      1.1094E-02
   4    9.991       8.882       7.774       6.666       5.557       4.448       3.339       2.230       1.120      1.1094E-02
   5    9.991       8.882       7.774       6.666       5.557       4.448       3.339       2.230       1.120      1.1094E-02
   6    9.991       8.882       7.774       6.666       5.557       4.448       3.339       2.230       1.120      1.1094E-02
   7    9.991       8.882       7.774       6.666       5.557       4.448       3.339       2.230       1.120      1.1094E-02
   8    9.991       8.882       7.774       6.666       5.557       4.448       3.339       2.230       1.120      1.1094E-02
   9    9.991       8.882       7.774       6.666       5.557       4.448       3.339       2.230       1.120      1.1094E-02
  10    9.991       8.882       7.774       6.666       5.557       4.448       3.339       2.230       1.120      1.1094E-02

 HEAD WILL BE SAVED ON UNIT   51 AT END OF TIME STEP   73, STRESS PERIOD    2

 DRAWDOWN WILL BE SAVED ON UNIT   52 AT END OF TIME STEP   73, STRESS PERIOD    2
1
  VOLUMETRIC BUDGET FOR ENTIRE MODEL AT END OF TIME STEP   73, STRESS PERIOD   2
  ------------------------------------------------------------------------------

     CUMULATIVE VOLUMES      L**3       RATES FOR THIS TIME STEP      L**3/T
     ------------------                 ------------------------

           IN:                                      IN:
           ---                                      ---
             STORAGE =       24990.8418               STORAGE =           0.5445
       CONSTANT HEAD =           0.0000         CONSTANT HEAD =           0.0000
               WELLS =           0.0000                 WELLS =           0.0000
     HEAD DEP BOUNDS =       33047.2578       HEAD DEP BOUNDS =         554.1456

            TOTAL IN =       58038.1016              TOTAL IN =         554.6902

          OUT:                                     OUT:
          ----                                     ----
             STORAGE =           0.0000               STORAGE =           0.0000
       CONSTANT HEAD =           0.0000         CONSTANT HEAD =           0.0000
               WELLS =           0.0000                 WELLS =           0.0000
     HEAD DEP BOUNDS =       58038.1406       HEAD DEP BOUNDS =         554.6987

           TOTAL OUT =       58038.1406             TOTAL OUT =         554.6987

            IN - OUT =      -3.9062E-02              IN - OUT =      -8.4839E-03

 PERCENT DISCREPANCY =          -0.00     PERCENT DISCREPANCY =          -0.00






         TIME SUMMARY AT END OF TIME STEP   73 IN STRESS PERIOD    2
                    SECONDS     MINUTES      HOURS       DAYS        YEARS
                    -----------------------------------------------------------
   TIME STEP LENGTH  86400.      1440.0      24.000      1.0000     2.73785E-03
 STRESS PERIOD TIME 6.30720E+06 1.05120E+05  1752.0      73.000     0.19986    
         TOTAL TIME 6.39360E+06 1.06560E+05  1776.0      74.000     0.20260    
1

 SOLVING FOR HEAD 

 OUTPUT CONTROL FOR STRESS PERIOD    2   TIME STEP   74
    SAVE HEAD FOR ALL LAYERS
    SAVE DRAWDOWN FOR ALL LAYERS
    SAVE BUDGET
    PRINT HEAD FOR ALL LAYERS
    PRINT BUDGET
 UBDSV1 SAVING "         STORAGE" ON UNIT  53 AT TIME STEP 74, STRESS PERIOD   2
 UBDSV2 SAVING "   CONSTANT HEAD" ON UNIT  53 AT TIME STEP 74, STRESS PERIOD   2
 UBDSV1 SAVING "FLOW RIGHT FACE " ON UNIT  53 AT TIME STEP 74, STRESS PERIOD   2
 UBDSV1 SAVING "FLOW FRONT FACE " ON UNIT  53 AT TIME STEP 74, STRESS PERIOD   2
1
              HEAD IN LAYER   1 AT END OF TIME STEP  74 IN STRESS PERIOD    2
  ---------------------------------------------------------------------------

            1           2           3           4           5           6           7           8           9          10
 ........................................................................................................................
   1    9.991       8.882       7.774       6.665       5.557       4.448       3.339       2.230       1.120      1.1093E-02
   2    9.991       8.882       7.774       6.665       5.557       4.448       3.339       2.230       1.120      1.1093E-02
   3    9.991       8.882       7.774       6.665       5.557       4.448       3.339       2.230       1.120      1.1093E-02
   4    9.991       8.882       7.774       6.665       5.557       4.448       3.339       2.230       1.120      1.1093E-02
   5    9.991       8.882       7.774       6.665       5.557       4.448       3.339       2.230       1.120      1.1093E-02
   6    9.991       8.882       7.774       6.665       5.557       4.448       3.339       2.230       1.120      1.1093E-02
   7    9.991       8.882       7.774       6.665       5.557       4.448       3.339       2.230       1.120      1.1093E-02
   8    9.991       8.882       7.774       6.665       5.557       4.448       3.339       2.230       1.120      1.1093E-02
   9    9.991       8.882       7.774       6.665       5.557       4.448       3.339       2.230       1.120      1.1093E-02
  10    9.991       8.882       7.774       6.665       5.557       4.448       3.339       2.230       1.120      1.1093E-02

 HEAD WILL BE SAVED ON UNIT   51 AT END OF TIME STEP   74, STRESS PERIOD    2

 DRAWDOWN WILL BE SAVED ON UNIT   52 AT END OF TIME STEP   74, STRESS PERIOD    2
1
  VOLUMETRIC BUDGET FOR ENTIRE MODEL AT END OF TIME STEP   74, STRESS PERIOD   2
  ------------------------------------------------------------------------------

     CUMULATIVE VOLUMES      L**3       RATES FOR THIS TIME STEP      L**3/T
     ------------------                 ------------------------

           IN:                                      IN:
           ---                                      ---
             STORAGE =       24991.3281               STORAGE =           0.4866
       CONSTANT HEAD =           0.0000         CONSTANT HEAD =           0.0000
               WELLS =           0.0000                 WELLS =           0.0000
     HEAD DEP BOUNDS =       33601.4336       HEAD DEP BOUNDS =         554.1745

            TOTAL IN =       58592.7617              TOTAL IN =         554.6611

          OUT:                                     OUT:
          ----                                     ----
             STORAGE =           0.0000               STORAGE =           0.0000
       CONSTANT HEAD =           0.0000         CONSTANT HEAD =           0.0000
               WELLS =           0.0000                 WELLS =           0.0000
     HEAD DEP BOUNDS =       58592.8086       HEAD DEP BOUNDS =         554.6694

           TOTAL OUT =       58592.8086             TOTAL OUT =         554.6694

            IN - OUT =      -4.6875E-02              IN - OUT =      -8.3008E-03

 PERCENT DISCREPANCY =          -0.00     PERCENT DISCREPANCY =          -0.00






         TIME SUMMARY AT END OF TIME STEP   74 IN STRESS PERIOD    2
                    SECONDS     MINUTES      HOURS       DAYS        YEARS
                    -----------------------------------------------------------
   TIME STEP LENGTH  86400.      1440.0      24.000      1.0000     2.73785E-03
 STRESS PERIOD TIME 6.39360E+06 1.06560E+05  1776.0      74.000     0.20260    
         TOTAL TIME 6.48000E+06 1.08000E+05  1800.0      75.000     0.20534    
1

 SOLVING FOR HEAD 

 OUTPUT CONTROL FOR STRESS PERIOD    2   TIME STEP   75
    SAVE HEAD FOR ALL LAYERS
    SAVE DRAWDOWN FOR ALL LAYERS
    SAVE BUDGET
    PRINT HEAD FOR ALL LAYERS
    PRINT BUDGET
 UBDSV1 SAVING "         STORAGE" ON UNIT  53 AT TIME STEP 75, STRESS PERIOD   2
 UBDSV2 SAVING "   CONSTANT HEAD" ON UNIT  53 AT TIME STEP 75, STRESS PERIOD   2
 UBDSV1 SAVING "FLOW RIGHT FACE " ON UNIT  53 AT TIME STEP 75, STRESS PERIOD   2
 UBDSV1 SAVING "FLOW FRONT FACE " ON UNIT  53 AT TIME STEP 75, STRESS PERIOD   2
1
              HEAD IN LAYER   1 AT END OF TIME STEP  75 IN STRESS PERIOD    2
  ---------------------------------------------------------------------------

            1           2           3           4           5           6           7           8           9          10
 ........................................................................................................................
   1    9.991       8.882       7.774       6.665       5.557       4.448       3.339       2.230       1.120      1.1093E-02
   2    9.991       8.882       7.774       6.665       5.557       4.448       3.339       2.230       1.120      1.1093E-02
   3    9.991       8.882       7.774       6.665       5.557       4.448       3.339       2.230       1.120      1.1093E-02
   4    9.991       8.882       7.774       6.665       5.557       4.448       3.339       2.230       1.120      1.1093E-02
   5    9.991       8.882       7.774       6.665       5.557       4.448       3.339       2.230       1.120      1.1093E-02
   6    9.991       8.882       7.774       6.665       5.557       4.448       3.339       2.230       1.120      1.1093E-02
   7    9.991       8.882       7.774       6.665       5.557       4.448       3.339       2.230       1.120      1.1093E-02
   8    9.991       8.882       7.774       6.665       5.557       4.448       3.339       2.230       1.120      1.1093E-02
   9    9.991       8.882       7.774       6.665       5.557       4.448       3.339       2.230       1.120      1.1093E-02
  10    9.991       8.882       7.774       6.665       5.557       4.448       3.339       2.230       1.120      1.1093E-02

 HEAD WILL BE SAVED ON UNIT   51 AT END OF TIME STEP   75, STRESS PERIOD    2

 DRAWDOWN WILL BE SAVED ON UNIT   52 AT END OF TIME STEP   75, STRESS PERIOD    2
1
  VOLUMETRIC BUDGET FOR ENTIRE MODEL AT END OF TIME STEP   75, STRESS PERIOD   2
  ------------------------------------------------------------------------------

     CUMULATIVE VOLUMES      L**3       RATES FOR THIS TIME STEP      L**3/T
     ------------------                 ------------------------

           IN:                                      IN:
           ---                                      ---
             STORAGE =       24991.7617               STORAGE =           0.4340
       CONSTANT HEAD =           0.0000         CONSTANT HEAD =           0.0000
               WELLS =           0.0000                 WELLS =           0.0000
     HEAD DEP BOUNDS =       34155.6328       HEAD DEP BOUNDS =         554.2003

            TOTAL IN =       59147.3945              TOTAL IN =         554.6342

          OUT:                                     OUT:
          ----                                     ----
             STORAGE =           0.0000               STORAGE =           0.0000
       CONSTANT HEAD =           0.0000         CONSTANT HEAD =           0.0000
               WELLS =           0.0000                 WELLS =           0.0000
     HEAD DEP BOUNDS =       59147.4531       HEAD DEP BOUNDS =         554.6434

           TOTAL OUT =       59147.4531             TOTAL OUT =         554.6434

            IN - OUT =      -5.8594E-02              IN - OUT =      -9.1553E-03

 PERCENT DISCREPANCY =          -0.00     PERCENT DISCREPANCY =          -0.00






         TIME SUMMARY AT END OF TIME STEP   75 IN STRESS PERIOD    2
                    SECONDS     MINUTES      HOURS       DAYS        YEARS
                    -----------------------------------------------------------
   TIME STEP LENGTH  86400.      1440.0      24.000      1.0000     2.73785E-03
 STRESS PERIOD TIME 6.48000E+06 1.08000E+05  1800.0      75.000     0.20534    
         TOTAL TIME 6.56640E+06 1.09440E+05  1824.0      76.000     0.20808    
1

 SOLVING FOR HEAD 

 OUTPUT CONTROL FOR STRESS PERIOD    2   TIME STEP   76
    SAVE HEAD FOR ALL LAYERS
    SAVE DRAWDOWN FOR ALL LAYERS
    SAVE BUDGET
    PRINT HEAD FOR ALL LAYERS
    PRINT BUDGET
 UBDSV1 SAVING "         STORAGE" ON UNIT  53 AT TIME STEP 76, STRESS PERIOD   2
 UBDSV2 SAVING "   CONSTANT HEAD" ON UNIT  53 AT TIME STEP 76, STRESS PERIOD   2
 UBDSV1 SAVING "FLOW RIGHT FACE " ON UNIT  53 AT TIME STEP 76, STRESS PERIOD   2
 UBDSV1 SAVING "FLOW FRONT FACE " ON UNIT  53 AT TIME STEP 76, STRESS PERIOD   2
1
              HEAD IN LAYER   1 AT END OF TIME STEP  76 IN STRESS PERIOD    2
  ---------------------------------------------------------------------------

            1           2           3           4           5           6           7           8           9          10
 ........................................................................................................................
   1    9.991       8.882       7.774       6.665       5.556       4.448       3.339       2.230       1.120      1.1092E-02
   2    9.991       8.882       7.774       6.665       5.556       4.448       3.339       2.230       1.120      1.1092E-02
   3    9.991       8.882       7.774       6.665       5.556       4.448       3.339       2.230       1.120      1.1092E-02
   4    9.991       8.882       7.774       6.665       5.556       4.448       3.339       2.230       1.120      1.1092E-02
   5    9.991       8.882       7.774       6.665       5.556       4.448       3.339       2.230       1.120      1.1092E-02
   6    9.991       8.882       7.774       6.665       5.556       4.448       3.339       2.230       1.120      1.1092E-02
   7    9.991       8.882       7.774       6.665       5.556       4.448       3.339       2.230       1.120      1.1092E-02
   8    9.991       8.882       7.774       6.665       5.556       4.448       3.339       2.230       1.120      1.1092E-02
   9    9.991       8.882       7.774       6.665       5.556       4.448       3.339       2.230       1.120      1.1092E-02
  10    9.991       8.882       7.774       6.665       5.556       4.448       3.339       2.230       1.120      1.1092E-02

 HEAD WILL BE SAVED ON UNIT   51 AT END OF TIME STEP   76, STRESS PERIOD    2

 DRAWDOWN WILL BE SAVED ON UNIT   52 AT END OF TIME STEP   76, STRESS PERIOD    2
1
  VOLUMETRIC BUDGET FOR ENTIRE MODEL AT END OF TIME STEP   76, STRESS PERIOD   2
  ------------------------------------------------------------------------------

     CUMULATIVE VOLUMES      L**3       RATES FOR THIS TIME STEP      L**3/T
     ------------------                 ------------------------

           IN:                                      IN:
           ---                                      ---
             STORAGE =       24992.1484               STORAGE =           0.3877
       CONSTANT HEAD =           0.0000         CONSTANT HEAD =           0.0000
               WELLS =           0.0000                 WELLS =           0.0000
     HEAD DEP BOUNDS =       34709.8555       HEAD DEP BOUNDS =         554.2233

            TOTAL IN =       59702.0039              TOTAL IN =         554.6110

          OUT:                                     OUT:
          ----                                     ----
             STORAGE =           0.0000               STORAGE =           0.0000
       CONSTANT HEAD =           0.0000         CONSTANT HEAD =           0.0000
               WELLS =           0.0000                 WELLS =           0.0000
     HEAD DEP BOUNDS =       59702.0742       HEAD DEP BOUNDS =         554.6201

           TOTAL OUT =       59702.0742             TOTAL OUT =         554.6201

            IN - OUT =      -7.0312E-02              IN - OUT =      -9.0332E-03

 PERCENT DISCREPANCY =          -0.00     PERCENT DISCREPANCY =          -0.00






         TIME SUMMARY AT END OF TIME STEP   76 IN STRESS PERIOD    2
                    SECONDS     MINUTES      HOURS       DAYS        YEARS
                    -----------------------------------------------------------
   TIME STEP LENGTH  86400.      1440.0      24.000      1.0000     2.73785E-03
 STRESS PERIOD TIME 6.56640E+06 1.09440E+05  1824.0      76.000     0.20808    
         TOTAL TIME 6.65280E+06 1.10880E+05  1848.0      77.000     0.21081    
1

 SOLVING FOR HEAD 

 OUTPUT CONTROL FOR STRESS PERIOD    2   TIME STEP   77
    SAVE HEAD FOR ALL LAYERS
    SAVE DRAWDOWN FOR ALL LAYERS
    SAVE BUDGET
    PRINT HEAD FOR ALL LAYERS
    PRINT BUDGET
 UBDSV1 SAVING "         STORAGE" ON UNIT  53 AT TIME STEP 77, STRESS PERIOD   2
 UBDSV2 SAVING "   CONSTANT HEAD" ON UNIT  53 AT TIME STEP 77, STRESS PERIOD   2
 UBDSV1 SAVING "FLOW RIGHT FACE " ON UNIT  53 AT TIME STEP 77, STRESS PERIOD   2
 UBDSV1 SAVING "FLOW FRONT FACE " ON UNIT  53 AT TIME STEP 77, STRESS PERIOD   2
1
              HEAD IN LAYER   1 AT END OF TIME STEP  77 IN STRESS PERIOD    2
  ---------------------------------------------------------------------------

            1           2           3           4           5           6           7           8           9          10
 ........................................................................................................................
   1    9.991       8.882       7.774       6.665       5.556       4.447       3.339       2.229       1.120      1.1092E-02
   2    9.991       8.882       7.774       6.665       5.556       4.447       3.339       2.229       1.120      1.1092E-02
   3    9.991       8.882       7.774       6.665       5.556       4.447       3.339       2.229       1.120      1.1092E-02
   4    9.991       8.882       7.774       6.665       5.556       4.447       3.339       2.229       1.120      1.1092E-02
   5    9.991       8.882       7.774       6.665       5.556       4.447       3.339       2.229       1.120      1.1092E-02
   6    9.991       8.882       7.774       6.665       5.556       4.447       3.339       2.229       1.120      1.1092E-02
   7    9.991       8.882       7.774       6.665       5.556       4.447       3.339       2.229       1.120      1.1092E-02
   8    9.991       8.882       7.774       6.665       5.556       4.447       3.339       2.229       1.120      1.1092E-02
   9    9.991       8.882       7.774       6.665       5.556       4.447       3.339       2.229       1.120      1.1092E-02
  10    9.991       8.882       7.774       6.665       5.556       4.447       3.339       2.229       1.120      1.1092E-02

 HEAD WILL BE SAVED ON UNIT   51 AT END OF TIME STEP   77, STRESS PERIOD    2

 DRAWDOWN WILL BE SAVED ON UNIT   52 AT END OF TIME STEP   77, STRESS PERIOD    2
1
  VOLUMETRIC BUDGET FOR ENTIRE MODEL AT END OF TIME STEP   77, STRESS PERIOD   2
  ------------------------------------------------------------------------------

     CUMULATIVE VOLUMES      L**3       RATES FOR THIS TIME STEP      L**3/T
     ------------------                 ------------------------

           IN:                                      IN:
           ---                                      ---
             STORAGE =       24992.4941               STORAGE =           0.3462
       CONSTANT HEAD =           0.0000         CONSTANT HEAD =           0.0000
               WELLS =           0.0000                 WELLS =           0.0000
     HEAD DEP BOUNDS =       35264.0977       HEAD DEP BOUNDS =         554.2438

            TOTAL IN =       60256.5938              TOTAL IN =         554.5900

          OUT:                                     OUT:
          ----                                     ----
             STORAGE =           0.0000               STORAGE =           0.0000
       CONSTANT HEAD =           0.0000         CONSTANT HEAD =           0.0000
               WELLS =           0.0000                 WELLS =           0.0000
     HEAD DEP BOUNDS =       60256.6719       HEAD DEP BOUNDS =         554.5992

           TOTAL OUT =       60256.6719             TOTAL OUT =         554.5992

            IN - OUT =      -7.8125E-02              IN - OUT =      -9.2163E-03

 PERCENT DISCREPANCY =          -0.00     PERCENT DISCREPANCY =          -0.00






         TIME SUMMARY AT END OF TIME STEP   77 IN STRESS PERIOD    2
                    SECONDS     MINUTES      HOURS       DAYS        YEARS
                    -----------------------------------------------------------
   TIME STEP LENGTH  86400.      1440.0      24.000      1.0000     2.73785E-03
 STRESS PERIOD TIME 6.65280E+06 1.10880E+05  1848.0      77.000     0.21081    
         TOTAL TIME 6.73920E+06 1.12320E+05  1872.0      78.000     0.21355    
1

 SOLVING FOR HEAD 

 OUTPUT CONTROL FOR STRESS PERIOD    2   TIME STEP   78
    SAVE HEAD FOR ALL LAYERS
    SAVE DRAWDOWN FOR ALL LAYERS
    SAVE BUDGET
    PRINT HEAD FOR ALL LAYERS
    PRINT BUDGET
 UBDSV1 SAVING "         STORAGE" ON UNIT  53 AT TIME STEP 78, STRESS PERIOD   2
 UBDSV2 SAVING "   CONSTANT HEAD" ON UNIT  53 AT TIME STEP 78, STRESS PERIOD   2
 UBDSV1 SAVING "FLOW RIGHT FACE " ON UNIT  53 AT TIME STEP 78, STRESS PERIOD   2
 UBDSV1 SAVING "FLOW FRONT FACE " ON UNIT  53 AT TIME STEP 78, STRESS PERIOD   2
1
              HEAD IN LAYER   1 AT END OF TIME STEP  78 IN STRESS PERIOD    2
  ---------------------------------------------------------------------------

            1           2           3           4           5           6           7           8           9          10
 ........................................................................................................................
   1    9.991       8.882       7.774       6.665       5.556       4.447       3.338       2.229       1.120      1.1092E-02
   2    9.991       8.882       7.774       6.665       5.556       4.447       3.338       2.229       1.120      1.1092E-02
   3    9.991       8.882       7.774       6.665       5.556       4.447       3.338       2.229       1.120      1.1092E-02
   4    9.991       8.882       7.774       6.665       5.556       4.447       3.338       2.229       1.120      1.1092E-02
   5    9.991       8.882       7.774       6.665       5.556       4.447       3.338       2.229       1.120      1.1092E-02
   6    9.991       8.882       7.774       6.665       5.556       4.447       3.338       2.229       1.120      1.1092E-02
   7    9.991       8.882       7.774       6.665       5.556       4.447       3.338       2.229       1.120      1.1092E-02
   8    9.991       8.882       7.774       6.665       5.556       4.447       3.338       2.229       1.120      1.1092E-02
   9    9.991       8.882       7.774       6.665       5.556       4.447       3.338       2.229       1.120      1.1092E-02
  10    9.991       8.882       7.774       6.665       5.556       4.447       3.338       2.229       1.120      1.1092E-02

 HEAD WILL BE SAVED ON UNIT   51 AT END OF TIME STEP   78, STRESS PERIOD    2

 DRAWDOWN WILL BE SAVED ON UNIT   52 AT END OF TIME STEP   78, STRESS PERIOD    2
1
  VOLUMETRIC BUDGET FOR ENTIRE MODEL AT END OF TIME STEP   78, STRESS PERIOD   2
  ------------------------------------------------------------------------------

     CUMULATIVE VOLUMES      L**3       RATES FOR THIS TIME STEP      L**3/T
     ------------------                 ------------------------

           IN:                                      IN:
           ---                                      ---
             STORAGE =       24992.8027               STORAGE =           0.3089
       CONSTANT HEAD =           0.0000         CONSTANT HEAD =           0.0000
               WELLS =           0.0000                 WELLS =           0.0000
     HEAD DEP BOUNDS =       35818.3594       HEAD DEP BOUNDS =         554.2623

            TOTAL IN =       60811.1641              TOTAL IN =         554.5712

          OUT:                                     OUT:
          ----                                     ----
             STORAGE =           0.0000               STORAGE =           0.0000
       CONSTANT HEAD =           0.0000         CONSTANT HEAD =           0.0000
               WELLS =           0.0000                 WELLS =           0.0000
     HEAD DEP BOUNDS =       60811.2539       HEAD DEP BOUNDS =         554.5807

           TOTAL OUT =       60811.2539             TOTAL OUT =         554.5807

            IN - OUT =      -8.9844E-02              IN - OUT =      -9.5215E-03

 PERCENT DISCREPANCY =          -0.00     PERCENT DISCREPANCY =          -0.00






         TIME SUMMARY AT END OF TIME STEP   78 IN STRESS PERIOD    2
                    SECONDS     MINUTES      HOURS       DAYS        YEARS
                    -----------------------------------------------------------
   TIME STEP LENGTH  86400.      1440.0      24.000      1.0000     2.73785E-03
 STRESS PERIOD TIME 6.73920E+06 1.12320E+05  1872.0      78.000     0.21355    
         TOTAL TIME 6.82560E+06 1.13760E+05  1896.0      79.000     0.21629    
1

 SOLVING FOR HEAD 

 OUTPUT CONTROL FOR STRESS PERIOD    2   TIME STEP   79
    SAVE HEAD FOR ALL LAYERS
    SAVE DRAWDOWN FOR ALL LAYERS
    SAVE BUDGET
    PRINT HEAD FOR ALL LAYERS
    PRINT BUDGET
 UBDSV1 SAVING "         STORAGE" ON UNIT  53 AT TIME STEP 79, STRESS PERIOD   2
 UBDSV2 SAVING "   CONSTANT HEAD" ON UNIT  53 AT TIME STEP 79, STRESS PERIOD   2
 UBDSV1 SAVING "FLOW RIGHT FACE " ON UNIT  53 AT TIME STEP 79, STRESS PERIOD   2
 UBDSV1 SAVING "FLOW FRONT FACE " ON UNIT  53 AT TIME STEP 79, STRESS PERIOD   2
1
              HEAD IN LAYER   1 AT END OF TIME STEP  79 IN STRESS PERIOD    2
  ---------------------------------------------------------------------------

            1           2           3           4           5           6           7           8           9          10
 ........................................................................................................................
   1    9.991       8.882       7.774       6.665       5.556       4.447       3.338       2.229       1.120      1.1091E-02
   2    9.991       8.882       7.774       6.665       5.556       4.447       3.338       2.229       1.120      1.1091E-02
   3    9.991       8.882       7.774       6.665       5.556       4.447       3.338       2.229       1.120      1.1091E-02
   4    9.991       8.882       7.774       6.665       5.556       4.447       3.338       2.229       1.120      1.1091E-02
   5    9.991       8.882       7.774       6.665       5.556       4.447       3.338       2.229       1.120      1.1091E-02
   6    9.991       8.882       7.774       6.665       5.556       4.447       3.338       2.229       1.120      1.1091E-02
   7    9.991       8.882       7.774       6.665       5.556       4.447       3.338       2.229       1.120      1.1091E-02
   8    9.991       8.882       7.774       6.665       5.556       4.447       3.338       2.229       1.120      1.1091E-02
   9    9.991       8.882       7.774       6.665       5.556       4.447       3.338       2.229       1.120      1.1091E-02
  10    9.991       8.882       7.774       6.665       5.556       4.447       3.338       2.229       1.120      1.1091E-02

 HEAD WILL BE SAVED ON UNIT   51 AT END OF TIME STEP   79, STRESS PERIOD    2

 DRAWDOWN WILL BE SAVED ON UNIT   52 AT END OF TIME STEP   79, STRESS PERIOD    2
1
  VOLUMETRIC BUDGET FOR ENTIRE MODEL AT END OF TIME STEP   79, STRESS PERIOD   2
  ------------------------------------------------------------------------------

     CUMULATIVE VOLUMES      L**3       RATES FOR THIS TIME STEP      L**3/T
     ------------------                 ------------------------

           IN:                                      IN:
           ---                                      ---
             STORAGE =       24993.0781               STORAGE =           0.2759
       CONSTANT HEAD =           0.0000         CONSTANT HEAD =           0.0000
               WELLS =           0.0000                 WELLS =           0.0000
     HEAD DEP BOUNDS =       36372.6367       HEAD DEP BOUNDS =         554.2786

            TOTAL IN =       61365.7148              TOTAL IN =         554.5546

          OUT:                                     OUT:
          ----                                     ----
             STORAGE =           0.0000               STORAGE =           0.0000
       CONSTANT HEAD =           0.0000         CONSTANT HEAD =           0.0000
               WELLS =           0.0000                 WELLS =           0.0000
     HEAD DEP BOUNDS =       61365.8164       HEAD DEP BOUNDS =         554.5641

           TOTAL OUT =       61365.8164             TOTAL OUT =         554.5641

            IN - OUT =          -0.1016              IN - OUT =      -9.5215E-03

 PERCENT DISCREPANCY =          -0.00     PERCENT DISCREPANCY =          -0.00






         TIME SUMMARY AT END OF TIME STEP   79 IN STRESS PERIOD    2
                    SECONDS     MINUTES      HOURS       DAYS        YEARS
                    -----------------------------------------------------------
   TIME STEP LENGTH  86400.      1440.0      24.000      1.0000     2.73785E-03
 STRESS PERIOD TIME 6.82560E+06 1.13760E+05  1896.0      79.000     0.21629    
         TOTAL TIME 6.91200E+06 1.15200E+05  1920.0      80.000     0.21903    
1

 SOLVING FOR HEAD 

 OUTPUT CONTROL FOR STRESS PERIOD    2   TIME STEP   80
    SAVE HEAD FOR ALL LAYERS
    SAVE DRAWDOWN FOR ALL LAYERS
    SAVE BUDGET
    PRINT HEAD FOR ALL LAYERS
    PRINT BUDGET
 UBDSV1 SAVING "         STORAGE" ON UNIT  53 AT TIME STEP 80, STRESS PERIOD   2
 UBDSV2 SAVING "   CONSTANT HEAD" ON UNIT  53 AT TIME STEP 80, STRESS PERIOD   2
 UBDSV1 SAVING "FLOW RIGHT FACE " ON UNIT  53 AT TIME STEP 80, STRESS PERIOD   2
 UBDSV1 SAVING "FLOW FRONT FACE " ON UNIT  53 AT TIME STEP 80, STRESS PERIOD   2
1
              HEAD IN LAYER   1 AT END OF TIME STEP  80 IN STRESS PERIOD    2
  ---------------------------------------------------------------------------

            1           2           3           4           5           6           7           8           9          10
 ........................................................................................................................
   1    9.991       8.882       7.774       6.665       5.556       4.447       3.338       2.229       1.120      1.1091E-02
   2    9.991       8.882       7.774       6.665       5.556       4.447       3.338       2.229       1.120      1.1091E-02
   3    9.991       8.882       7.774       6.665       5.556       4.447       3.338       2.229       1.120      1.1091E-02
   4    9.991       8.882       7.774       6.665       5.556       4.447       3.338       2.229       1.120      1.1091E-02
   5    9.991       8.882       7.774       6.665       5.556       4.447       3.338       2.229       1.120      1.1091E-02
   6    9.991       8.882       7.774       6.665       5.556       4.447       3.338       2.229       1.120      1.1091E-02
   7    9.991       8.882       7.774       6.665       5.556       4.447       3.338       2.229       1.120      1.1091E-02
   8    9.991       8.882       7.774       6.665       5.556       4.447       3.338       2.229       1.120      1.1091E-02
   9    9.991       8.882       7.774       6.665       5.556       4.447       3.338       2.229       1.120      1.1091E-02
  10    9.991       8.882       7.774       6.665       5.556       4.447       3.338       2.229       1.120      1.1091E-02

 HEAD WILL BE SAVED ON UNIT   51 AT END OF TIME STEP   80, STRESS PERIOD    2

 DRAWDOWN WILL BE SAVED ON UNIT   52 AT END OF TIME STEP   80, STRESS PERIOD    2
1
  VOLUMETRIC BUDGET FOR ENTIRE MODEL AT END OF TIME STEP   80, STRESS PERIOD   2
  ------------------------------------------------------------------------------

     CUMULATIVE VOLUMES      L**3       RATES FOR THIS TIME STEP      L**3/T
     ------------------                 ------------------------

           IN:                                      IN:
           ---                                      ---
             STORAGE =       24993.3242               STORAGE =           0.2468
       CONSTANT HEAD =           0.0000         CONSTANT HEAD =           0.0000
               WELLS =           0.0000                 WELLS =           0.0000
     HEAD DEP BOUNDS =       36926.9297       HEAD DEP BOUNDS =         554.2933

            TOTAL IN =       61920.2539              TOTAL IN =         554.5402

          OUT:                                     OUT:
          ----                                     ----
             STORAGE =           0.0000               STORAGE =           0.0000
       CONSTANT HEAD =           0.0000         CONSTANT HEAD =           0.0000
               WELLS =           0.0000                 WELLS =           0.0000
     HEAD DEP BOUNDS =       61920.3672       HEAD DEP BOUNDS =         554.5493

           TOTAL OUT =       61920.3672             TOTAL OUT =         554.5493

            IN - OUT =          -0.1133              IN - OUT =      -9.1553E-03

 PERCENT DISCREPANCY =          -0.00     PERCENT DISCREPANCY =          -0.00






         TIME SUMMARY AT END OF TIME STEP   80 IN STRESS PERIOD    2
                    SECONDS     MINUTES      HOURS       DAYS        YEARS
                    -----------------------------------------------------------
   TIME STEP LENGTH  86400.      1440.0      24.000      1.0000     2.73785E-03
 STRESS PERIOD TIME 6.91200E+06 1.15200E+05  1920.0      80.000     0.21903    
         TOTAL TIME 6.99840E+06 1.16640E+05  1944.0      81.000     0.22177    
1

 SOLVING FOR HEAD 

 OUTPUT CONTROL FOR STRESS PERIOD    2   TIME STEP   81
    SAVE HEAD FOR ALL LAYERS
    SAVE DRAWDOWN FOR ALL LAYERS
    SAVE BUDGET
    PRINT HEAD FOR ALL LAYERS
    PRINT BUDGET
 UBDSV1 SAVING "         STORAGE" ON UNIT  53 AT TIME STEP 81, STRESS PERIOD   2
 UBDSV2 SAVING "   CONSTANT HEAD" ON UNIT  53 AT TIME STEP 81, STRESS PERIOD   2
 UBDSV1 SAVING "FLOW RIGHT FACE " ON UNIT  53 AT TIME STEP 81, STRESS PERIOD   2
 UBDSV1 SAVING "FLOW FRONT FACE " ON UNIT  53 AT TIME STEP 81, STRESS PERIOD   2
1
              HEAD IN LAYER   1 AT END OF TIME STEP  81 IN STRESS PERIOD    2
  ---------------------------------------------------------------------------

            1           2           3           4           5           6           7           8           9          10
 ........................................................................................................................
   1    9.991       8.882       7.773       6.665       5.556       4.447       3.338       2.229       1.120      1.1091E-02
   2    9.991       8.882       7.773       6.665       5.556       4.447       3.338       2.229       1.120      1.1091E-02
   3    9.991       8.882       7.773       6.665       5.556       4.447       3.338       2.229       1.120      1.1091E-02
   4    9.991       8.882       7.773       6.665       5.556       4.447       3.338       2.229       1.120      1.1091E-02
   5    9.991       8.882       7.773       6.665       5.556       4.447       3.338       2.229       1.120      1.1091E-02
   6    9.991       8.882       7.773       6.665       5.556       4.447       3.338       2.229       1.120      1.1091E-02
   7    9.991       8.882       7.773       6.665       5.556       4.447       3.338       2.229       1.120      1.1091E-02
   8    9.991       8.882       7.773       6.665       5.556       4.447       3.338       2.229       1.120      1.1091E-02
   9    9.991       8.882       7.773       6.665       5.556       4.447       3.338       2.229       1.120      1.1091E-02
  10    9.991       8.882       7.773       6.665       5.556       4.447       3.338       2.229       1.120      1.1091E-02

 HEAD WILL BE SAVED ON UNIT   51 AT END OF TIME STEP   81, STRESS PERIOD    2

 DRAWDOWN WILL BE SAVED ON UNIT   52 AT END OF TIME STEP   81, STRESS PERIOD    2
1
  VOLUMETRIC BUDGET FOR ENTIRE MODEL AT END OF TIME STEP   81, STRESS PERIOD   2
  ------------------------------------------------------------------------------

     CUMULATIVE VOLUMES      L**3       RATES FOR THIS TIME STEP      L**3/T
     ------------------                 ------------------------

           IN:                                      IN:
           ---                                      ---
             STORAGE =       24993.5449               STORAGE =           0.2199
       CONSTANT HEAD =           0.0000         CONSTANT HEAD =           0.0000
               WELLS =           0.0000                 WELLS =           0.0000
     HEAD DEP BOUNDS =       37481.2344       HEAD DEP BOUNDS =         554.3066

            TOTAL IN =       62474.7812              TOTAL IN =         554.5265

          OUT:                                     OUT:
          ----                                     ----
             STORAGE =           0.0000               STORAGE =           0.0000
       CONSTANT HEAD =           0.0000         CONSTANT HEAD =           0.0000
               WELLS =           0.0000                 WELLS =           0.0000
     HEAD DEP BOUNDS =       62474.9023       HEAD DEP BOUNDS =         554.5361

           TOTAL OUT =       62474.9023             TOTAL OUT =         554.5361

            IN - OUT =          -0.1211              IN - OUT =      -9.6436E-03

 PERCENT DISCREPANCY =          -0.00     PERCENT DISCREPANCY =          -0.00






         TIME SUMMARY AT END OF TIME STEP   81 IN STRESS PERIOD    2
                    SECONDS     MINUTES      HOURS       DAYS        YEARS
                    -----------------------------------------------------------
   TIME STEP LENGTH  86400.      1440.0      24.000      1.0000     2.73785E-03
 STRESS PERIOD TIME 6.99840E+06 1.16640E+05  1944.0      81.000     0.22177    
         TOTAL TIME 7.08480E+06 1.18080E+05  1968.0      82.000     0.22450    
1

 SOLVING FOR HEAD 

 OUTPUT CONTROL FOR STRESS PERIOD    2   TIME STEP   82
    SAVE HEAD FOR ALL LAYERS
    SAVE DRAWDOWN FOR ALL LAYERS
    SAVE BUDGET
    PRINT HEAD FOR ALL LAYERS
    PRINT BUDGET
 UBDSV1 SAVING "         STORAGE" ON UNIT  53 AT TIME STEP 82, STRESS PERIOD   2
 UBDSV2 SAVING "   CONSTANT HEAD" ON UNIT  53 AT TIME STEP 82, STRESS PERIOD   2
 UBDSV1 SAVING "FLOW RIGHT FACE " ON UNIT  53 AT TIME STEP 82, STRESS PERIOD   2
 UBDSV1 SAVING "FLOW FRONT FACE " ON UNIT  53 AT TIME STEP 82, STRESS PERIOD   2
1
              HEAD IN LAYER   1 AT END OF TIME STEP  82 IN STRESS PERIOD    2
  ---------------------------------------------------------------------------

            1           2           3           4           5           6           7           8           9          10
 ........................................................................................................................
   1    9.991       8.882       7.773       6.665       5.556       4.447       3.338       2.229       1.120      1.1090E-02
   2    9.991       8.882       7.773       6.665       5.556       4.447       3.338       2.229       1.120      1.1090E-02
   3    9.991       8.882       7.773       6.665       5.556       4.447       3.338       2.229       1.120      1.1090E-02
   4    9.991       8.882       7.773       6.665       5.556       4.447       3.338       2.229       1.120      1.1090E-02
   5    9.991       8.882       7.773       6.665       5.556       4.447       3.338       2.229       1.120      1.1090E-02
   6    9.991       8.882       7.773       6.665       5.556       4.447       3.338       2.229       1.120      1.1090E-02
   7    9.991       8.882       7.773       6.665       5.556       4.447       3.338       2.229       1.120      1.1090E-02
   8    9.991       8.882       7.773       6.665       5.556       4.447       3.338       2.229       1.120      1.1090E-02
   9    9.991       8.882       7.773       6.665       5.556       4.447       3.338       2.229       1.120      1.1090E-02
  10    9.991       8.882       7.773       6.665       5.556       4.447       3.338       2.229       1.120      1.1090E-02

 HEAD WILL BE SAVED ON UNIT   51 AT END OF TIME STEP   82, STRESS PERIOD    2

 DRAWDOWN WILL BE SAVED ON UNIT   52 AT END OF TIME STEP   82, STRESS PERIOD    2
1
  VOLUMETRIC BUDGET FOR ENTIRE MODEL AT END OF TIME STEP   82, STRESS PERIOD   2
  ------------------------------------------------------------------------------

     CUMULATIVE VOLUMES      L**3       RATES FOR THIS TIME STEP      L**3/T
     ------------------                 ------------------------

           IN:                                      IN:
           ---                                      ---
             STORAGE =       24993.7402               STORAGE =           0.1961
       CONSTANT HEAD =           0.0000         CONSTANT HEAD =           0.0000
               WELLS =           0.0000                 WELLS =           0.0000
     HEAD DEP BOUNDS =       38035.5508       HEAD DEP BOUNDS =         554.3182

            TOTAL IN =       63029.2891              TOTAL IN =         554.5143

          OUT:                                     OUT:
          ----                                     ----
             STORAGE =           0.0000               STORAGE =           0.0000
       CONSTANT HEAD =           0.0000         CONSTANT HEAD =           0.0000
               WELLS =           0.0000                 WELLS =           0.0000
     HEAD DEP BOUNDS =       63029.4258       HEAD DEP BOUNDS =         554.5243

           TOTAL OUT =       63029.4258             TOTAL OUT =         554.5243

            IN - OUT =          -0.1367              IN - OUT =      -1.0010E-02

 PERCENT DISCREPANCY =          -0.00     PERCENT DISCREPANCY =          -0.00






         TIME SUMMARY AT END OF TIME STEP   82 IN STRESS PERIOD    2
                    SECONDS     MINUTES      HOURS       DAYS        YEARS
                    -----------------------------------------------------------
   TIME STEP LENGTH  86400.      1440.0      24.000      1.0000     2.73785E-03
 STRESS PERIOD TIME 7.08480E+06 1.18080E+05  1968.0      82.000     0.22450    
         TOTAL TIME 7.17120E+06 1.19520E+05  1992.0      83.000     0.22724    
1

 SOLVING FOR HEAD 

 OUTPUT CONTROL FOR STRESS PERIOD    2   TIME STEP   83
    SAVE HEAD FOR ALL LAYERS
    SAVE DRAWDOWN FOR ALL LAYERS
    SAVE BUDGET
    PRINT HEAD FOR ALL LAYERS
    PRINT BUDGET
 UBDSV1 SAVING "         STORAGE" ON UNIT  53 AT TIME STEP 83, STRESS PERIOD   2
 UBDSV2 SAVING "   CONSTANT HEAD" ON UNIT  53 AT TIME STEP 83, STRESS PERIOD   2
 UBDSV1 SAVING "FLOW RIGHT FACE " ON UNIT  53 AT TIME STEP 83, STRESS PERIOD   2
 UBDSV1 SAVING "FLOW FRONT FACE " ON UNIT  53 AT TIME STEP 83, STRESS PERIOD   2
1
              HEAD IN LAYER   1 AT END OF TIME STEP  83 IN STRESS PERIOD    2
  ---------------------------------------------------------------------------

            1           2           3           4           5           6           7           8           9          10
 ........................................................................................................................
   1    9.991       8.882       7.773       6.665       5.556       4.447       3.338       2.229       1.120      1.1090E-02
   2    9.991       8.882       7.773       6.665       5.556       4.447       3.338       2.229       1.120      1.1090E-02
   3    9.991       8.882       7.773       6.665       5.556       4.447       3.338       2.229       1.120      1.1090E-02
   4    9.991       8.882       7.773       6.665       5.556       4.447       3.338       2.229       1.120      1.1090E-02
   5    9.991       8.882       7.773       6.665       5.556       4.447       3.338       2.229       1.120      1.1090E-02
   6    9.991       8.882       7.773       6.665       5.556       4.447       3.338       2.229       1.120      1.1090E-02
   7    9.991       8.882       7.773       6.665       5.556       4.447       3.338       2.229       1.120      1.1090E-02
   8    9.991       8.882       7.773       6.665       5.556       4.447       3.338       2.229       1.120      1.1090E-02
   9    9.991       8.882       7.773       6.665       5.556       4.447       3.338       2.229       1.120      1.1090E-02
  10    9.991       8.882       7.773       6.665       5.556       4.447       3.338       2.229       1.120      1.1090E-02

 HEAD WILL BE SAVED ON UNIT   51 AT END OF TIME STEP   83, STRESS PERIOD    2

 DRAWDOWN WILL BE SAVED ON UNIT   52 AT END OF TIME STEP   83, STRESS PERIOD    2
1
  VOLUMETRIC BUDGET FOR ENTIRE MODEL AT END OF TIME STEP   83, STRESS PERIOD   2
  ------------------------------------------------------------------------------

     CUMULATIVE VOLUMES      L**3       RATES FOR THIS TIME STEP      L**3/T
     ------------------                 ------------------------

           IN:                                      IN:
           ---                                      ---
             STORAGE =       24993.9160               STORAGE =           0.1756
       CONSTANT HEAD =           0.0000         CONSTANT HEAD =           0.0000
               WELLS =           0.0000                 WELLS =           0.0000
     HEAD DEP BOUNDS =       38589.8789       HEAD DEP BOUNDS =         554.3286

            TOTAL IN =       63583.7969              TOTAL IN =         554.5042

          OUT:                                     OUT:
          ----                                     ----
             STORAGE =           0.0000               STORAGE =           0.0000
       CONSTANT HEAD =           0.0000         CONSTANT HEAD =           0.0000
               WELLS =           0.0000                 WELLS =           0.0000
     HEAD DEP BOUNDS =       63583.9414       HEAD DEP BOUNDS =         554.5138

           TOTAL OUT =       63583.9414             TOTAL OUT =         554.5138

            IN - OUT =          -0.1445              IN - OUT =      -9.5825E-03

 PERCENT DISCREPANCY =          -0.00     PERCENT DISCREPANCY =          -0.00






         TIME SUMMARY AT END OF TIME STEP   83 IN STRESS PERIOD    2
                    SECONDS     MINUTES      HOURS       DAYS        YEARS
                    -----------------------------------------------------------
   TIME STEP LENGTH  86400.      1440.0      24.000      1.0000     2.73785E-03
 STRESS PERIOD TIME 7.17120E+06 1.19520E+05  1992.0      83.000     0.22724    
         TOTAL TIME 7.25760E+06 1.20960E+05  2016.0      84.000     0.22998    
1

 SOLVING FOR HEAD 

 OUTPUT CONTROL FOR STRESS PERIOD    2   TIME STEP   84
    SAVE HEAD FOR ALL LAYERS
    SAVE DRAWDOWN FOR ALL LAYERS
    SAVE BUDGET
    PRINT HEAD FOR ALL LAYERS
    PRINT BUDGET
 UBDSV1 SAVING "         STORAGE" ON UNIT  53 AT TIME STEP 84, STRESS PERIOD   2
 UBDSV2 SAVING "   CONSTANT HEAD" ON UNIT  53 AT TIME STEP 84, STRESS PERIOD   2
 UBDSV1 SAVING "FLOW RIGHT FACE " ON UNIT  53 AT TIME STEP 84, STRESS PERIOD   2
 UBDSV1 SAVING "FLOW FRONT FACE " ON UNIT  53 AT TIME STEP 84, STRESS PERIOD   2
1
              HEAD IN LAYER   1 AT END OF TIME STEP  84 IN STRESS PERIOD    2
  ---------------------------------------------------------------------------

            1           2           3           4           5           6           7           8           9          10
 ........................................................................................................................
   1    9.991       8.882       7.773       6.665       5.556       4.447       3.338       2.229       1.120      1.1090E-02
   2    9.991       8.882       7.773       6.665       5.556       4.447       3.338       2.229       1.120      1.1090E-02
   3    9.991       8.882       7.773       6.665       5.556       4.447       3.338       2.229       1.120      1.1090E-02
   4    9.991       8.882       7.773       6.665       5.556       4.447       3.338       2.229       1.120      1.1090E-02
   5    9.991       8.882       7.773       6.665       5.556       4.447       3.338       2.229       1.120      1.1090E-02
   6    9.991       8.882       7.773       6.665       5.556       4.447       3.338       2.229       1.120      1.1090E-02
   7    9.991       8.882       7.773       6.665       5.556       4.447       3.338       2.229       1.120      1.1090E-02
   8    9.991       8.882       7.773       6.665       5.556       4.447       3.338       2.229       1.120      1.1090E-02
   9    9.991       8.882       7.773       6.665       5.556       4.447       3.338       2.229       1.120      1.1090E-02
  10    9.991       8.882       7.773       6.665       5.556       4.447       3.338       2.229       1.120      1.1090E-02

 HEAD WILL BE SAVED ON UNIT   51 AT END OF TIME STEP   84, STRESS PERIOD    2

 DRAWDOWN WILL BE SAVED ON UNIT   52 AT END OF TIME STEP   84, STRESS PERIOD    2
1
  VOLUMETRIC BUDGET FOR ENTIRE MODEL AT END OF TIME STEP   84, STRESS PERIOD   2
  ------------------------------------------------------------------------------

     CUMULATIVE VOLUMES      L**3       RATES FOR THIS TIME STEP      L**3/T
     ------------------                 ------------------------

           IN:                                      IN:
           ---                                      ---
             STORAGE =       24994.0723               STORAGE =           0.1563
       CONSTANT HEAD =           0.0000         CONSTANT HEAD =           0.0000
               WELLS =           0.0000                 WELLS =           0.0000
     HEAD DEP BOUNDS =       39144.2188       HEAD DEP BOUNDS =         554.3380

            TOTAL IN =       64138.2891              TOTAL IN =         554.4942

          OUT:                                     OUT:
          ----                                     ----
             STORAGE =           0.0000               STORAGE =           0.0000
       CONSTANT HEAD =           0.0000         CONSTANT HEAD =           0.0000
               WELLS =           0.0000                 WELLS =           0.0000
     HEAD DEP BOUNDS =       64138.4453       HEAD DEP BOUNDS =         554.5044

           TOTAL OUT =       64138.4453             TOTAL OUT =         554.5044

            IN - OUT =          -0.1562              IN - OUT =      -1.0193E-02

 PERCENT DISCREPANCY =          -0.00     PERCENT DISCREPANCY =          -0.00






         TIME SUMMARY AT END OF TIME STEP   84 IN STRESS PERIOD    2
                    SECONDS     MINUTES      HOURS       DAYS        YEARS
                    -----------------------------------------------------------
   TIME STEP LENGTH  86400.      1440.0      24.000      1.0000     2.73785E-03
 STRESS PERIOD TIME 7.25760E+06 1.20960E+05  2016.0      84.000     0.22998    
         TOTAL TIME 7.34400E+06 1.22400E+05  2040.0      85.000     0.23272    
1

 SOLVING FOR HEAD 

 OUTPUT CONTROL FOR STRESS PERIOD    2   TIME STEP   85
    SAVE HEAD FOR ALL LAYERS
    SAVE DRAWDOWN FOR ALL LAYERS
    SAVE BUDGET
    PRINT HEAD FOR ALL LAYERS
    PRINT BUDGET
 UBDSV1 SAVING "         STORAGE" ON UNIT  53 AT TIME STEP 85, STRESS PERIOD   2
 UBDSV2 SAVING "   CONSTANT HEAD" ON UNIT  53 AT TIME STEP 85, STRESS PERIOD   2
 UBDSV1 SAVING "FLOW RIGHT FACE " ON UNIT  53 AT TIME STEP 85, STRESS PERIOD   2
 UBDSV1 SAVING "FLOW FRONT FACE " ON UNIT  53 AT TIME STEP 85, STRESS PERIOD   2
1
              HEAD IN LAYER   1 AT END OF TIME STEP  85 IN STRESS PERIOD    2
  ---------------------------------------------------------------------------

            1           2           3           4           5           6           7           8           9          10
 ........................................................................................................................
   1    9.991       8.882       7.773       6.665       5.556       4.447       3.338       2.229       1.120      1.1090E-02
   2    9.991       8.882       7.773       6.665       5.556       4.447       3.338       2.229       1.120      1.1090E-02
   3    9.991       8.882       7.773       6.665       5.556       4.447       3.338       2.229       1.120      1.1090E-02
   4    9.991       8.882       7.773       6.665       5.556       4.447       3.338       2.229       1.120      1.1090E-02
   5    9.991       8.882       7.773       6.665       5.556       4.447       3.338       2.229       1.120      1.1090E-02
   6    9.991       8.882       7.773       6.665       5.556       4.447       3.338       2.229       1.120      1.1090E-02
   7    9.991       8.882       7.773       6.665       5.556       4.447       3.338       2.229       1.120      1.1090E-02
   8    9.991       8.882       7.773       6.665       5.556       4.447       3.338       2.229       1.120      1.1090E-02
   9    9.991       8.882       7.773       6.665       5.556       4.447       3.338       2.229       1.120      1.1090E-02
  10    9.991       8.882       7.773       6.665       5.556       4.447       3.338       2.229       1.120      1.1090E-02

 HEAD WILL BE SAVED ON UNIT   51 AT END OF TIME STEP   85, STRESS PERIOD    2

 DRAWDOWN WILL BE SAVED ON UNIT   52 AT END OF TIME STEP   85, STRESS PERIOD    2
1
  VOLUMETRIC BUDGET FOR ENTIRE MODEL AT END OF TIME STEP   85, STRESS PERIOD   2
  ------------------------------------------------------------------------------

     CUMULATIVE VOLUMES      L**3       RATES FOR THIS TIME STEP      L**3/T
     ------------------                 ------------------------

           IN:                                      IN:
           ---                                      ---
             STORAGE =       24994.2129               STORAGE =           0.1397
       CONSTANT HEAD =           0.0000         CONSTANT HEAD =           0.0000
               WELLS =           0.0000                 WELLS =           0.0000
     HEAD DEP BOUNDS =       39698.5664       HEAD DEP BOUNDS =         554.3463

            TOTAL IN =       64692.7812              TOTAL IN =         554.4860

          OUT:                                     OUT:
          ----                                     ----
             STORAGE =           0.0000               STORAGE =           0.0000
       CONSTANT HEAD =           0.0000         CONSTANT HEAD =           0.0000
               WELLS =           0.0000                 WELLS =           0.0000
     HEAD DEP BOUNDS =       64692.9414       HEAD DEP BOUNDS =         554.4960

           TOTAL OUT =       64692.9414             TOTAL OUT =         554.4960

            IN - OUT =          -0.1602              IN - OUT =      -1.0010E-02

 PERCENT DISCREPANCY =          -0.00     PERCENT DISCREPANCY =          -0.00






         TIME SUMMARY AT END OF TIME STEP   85 IN STRESS PERIOD    2
                    SECONDS     MINUTES      HOURS       DAYS        YEARS
                    -----------------------------------------------------------
   TIME STEP LENGTH  86400.      1440.0      24.000      1.0000     2.73785E-03
 STRESS PERIOD TIME 7.34400E+06 1.22400E+05  2040.0      85.000     0.23272    
         TOTAL TIME 7.43040E+06 1.23840E+05  2064.0      86.000     0.23546    
1

 SOLVING FOR HEAD 

 OUTPUT CONTROL FOR STRESS PERIOD    2   TIME STEP   86
    SAVE HEAD FOR ALL LAYERS
    SAVE DRAWDOWN FOR ALL LAYERS
    SAVE BUDGET
    PRINT HEAD FOR ALL LAYERS
    PRINT BUDGET
 UBDSV1 SAVING "         STORAGE" ON UNIT  53 AT TIME STEP 86, STRESS PERIOD   2
 UBDSV2 SAVING "   CONSTANT HEAD" ON UNIT  53 AT TIME STEP 86, STRESS PERIOD   2
 UBDSV1 SAVING "FLOW RIGHT FACE " ON UNIT  53 AT TIME STEP 86, STRESS PERIOD   2
 UBDSV1 SAVING "FLOW FRONT FACE " ON UNIT  53 AT TIME STEP 86, STRESS PERIOD   2
1
              HEAD IN LAYER   1 AT END OF TIME STEP  86 IN STRESS PERIOD    2
  ---------------------------------------------------------------------------

            1           2           3           4           5           6           7           8           9          10
 ........................................................................................................................
   1    9.991       8.882       7.773       6.665       5.556       4.447       3.338       2.229       1.120      1.1090E-02
   2    9.991       8.882       7.773       6.665       5.556       4.447       3.338       2.229       1.120      1.1090E-02
   3    9.991       8.882       7.773       6.665       5.556       4.447       3.338       2.229       1.120      1.1090E-02
   4    9.991       8.882       7.773       6.665       5.556       4.447       3.338       2.229       1.120      1.1090E-02
   5    9.991       8.882       7.773       6.665       5.556       4.447       3.338       2.229       1.120      1.1090E-02
   6    9.991       8.882       7.773       6.665       5.556       4.447       3.338       2.229       1.120      1.1090E-02
   7    9.991       8.882       7.773       6.665       5.556       4.447       3.338       2.229       1.120      1.1090E-02
   8    9.991       8.882       7.773       6.665       5.556       4.447       3.338       2.229       1.120      1.1090E-02
   9    9.991       8.882       7.773       6.665       5.556       4.447       3.338       2.229       1.120      1.1090E-02
  10    9.991       8.882       7.773       6.665       5.556       4.447       3.338       2.229       1.120      1.1090E-02

 HEAD WILL BE SAVED ON UNIT   51 AT END OF TIME STEP   86, STRESS PERIOD    2

 DRAWDOWN WILL BE SAVED ON UNIT   52 AT END OF TIME STEP   86, STRESS PERIOD    2
1
  VOLUMETRIC BUDGET FOR ENTIRE MODEL AT END OF TIME STEP   86, STRESS PERIOD   2
  ------------------------------------------------------------------------------

     CUMULATIVE VOLUMES      L**3       RATES FOR THIS TIME STEP      L**3/T
     ------------------                 ------------------------

           IN:                                      IN:
           ---                                      ---
             STORAGE =       24994.3379               STORAGE =           0.1245
       CONSTANT HEAD =           0.0000         CONSTANT HEAD =           0.0000
               WELLS =           0.0000                 WELLS =           0.0000
     HEAD DEP BOUNDS =       40252.9219       HEAD DEP BOUNDS =         554.3537

            TOTAL IN =       65247.2578              TOTAL IN =         554.4782

          OUT:                                     OUT:
          ----                                     ----
             STORAGE =           0.0000               STORAGE =           0.0000
       CONSTANT HEAD =           0.0000         CONSTANT HEAD =           0.0000
               WELLS =           0.0000                 WELLS =           0.0000
     HEAD DEP BOUNDS =       65247.4297       HEAD DEP BOUNDS =         554.4885

           TOTAL OUT =       65247.4297             TOTAL OUT =         554.4885

            IN - OUT =          -0.1719              IN - OUT =      -1.0315E-02

 PERCENT DISCREPANCY =          -0.00     PERCENT DISCREPANCY =          -0.00






         TIME SUMMARY AT END OF TIME STEP   86 IN STRESS PERIOD    2
                    SECONDS     MINUTES      HOURS       DAYS        YEARS
                    -----------------------------------------------------------
   TIME STEP LENGTH  86400.      1440.0      24.000      1.0000     2.73785E-03
 STRESS PERIOD TIME 7.43040E+06 1.23840E+05  2064.0      86.000     0.23546    
         TOTAL TIME 7.51680E+06 1.25280E+05  2088.0      87.000     0.23819    
1

 SOLVING FOR HEAD 

 OUTPUT CONTROL FOR STRESS PERIOD    2   TIME STEP   87
    SAVE HEAD FOR ALL LAYERS
    SAVE DRAWDOWN FOR ALL LAYERS
    SAVE BUDGET
    PRINT HEAD FOR ALL LAYERS
    PRINT BUDGET
 UBDSV1 SAVING "         STORAGE" ON UNIT  53 AT TIME STEP 87, STRESS PERIOD   2
 UBDSV2 SAVING "   CONSTANT HEAD" ON UNIT  53 AT TIME STEP 87, STRESS PERIOD   2
 UBDSV1 SAVING "FLOW RIGHT FACE " ON UNIT  53 AT TIME STEP 87, STRESS PERIOD   2
 UBDSV1 SAVING "FLOW FRONT FACE " ON UNIT  53 AT TIME STEP 87, STRESS PERIOD   2
1
              HEAD IN LAYER   1 AT END OF TIME STEP  87 IN STRESS PERIOD    2
  ---------------------------------------------------------------------------

            1           2           3           4           5           6           7           8           9          10
 ........................................................................................................................
   1    9.991       8.882       7.773       6.664       5.556       4.447       3.338       2.229       1.120      1.1090E-02
   2    9.991       8.882       7.773       6.664       5.556       4.447       3.338       2.229       1.120      1.1090E-02
   3    9.991       8.882       7.773       6.664       5.556       4.447       3.338       2.229       1.120      1.1090E-02
   4    9.991       8.882       7.773       6.664       5.556       4.447       3.338       2.229       1.120      1.1090E-02
   5    9.991       8.882       7.773       6.664       5.556       4.447       3.338       2.229       1.120      1.1090E-02
   6    9.991       8.882       7.773       6.664       5.556       4.447       3.338       2.229       1.120      1.1090E-02
   7    9.991       8.882       7.773       6.664       5.556       4.447       3.338       2.229       1.120      1.1090E-02
   8    9.991       8.882       7.773       6.664       5.556       4.447       3.338       2.229       1.120      1.1090E-02
   9    9.991       8.882       7.773       6.664       5.556       4.447       3.338       2.229       1.120      1.1090E-02
  10    9.991       8.882       7.773       6.664       5.556       4.447       3.338       2.229       1.120      1.1090E-02

 HEAD WILL BE SAVED ON UNIT   51 AT END OF TIME STEP   87, STRESS PERIOD    2

 DRAWDOWN WILL BE SAVED ON UNIT   52 AT END OF TIME STEP   87, STRESS PERIOD    2
1
  VOLUMETRIC BUDGET FOR ENTIRE MODEL AT END OF TIME STEP   87, STRESS PERIOD   2
  ------------------------------------------------------------------------------

     CUMULATIVE VOLUMES      L**3       RATES FOR THIS TIME STEP      L**3/T
     ------------------                 ------------------------

           IN:                                      IN:
           ---                                      ---
             STORAGE =       24994.4492               STORAGE =           0.1115
       CONSTANT HEAD =           0.0000         CONSTANT HEAD =           0.0000
               WELLS =           0.0000                 WELLS =           0.0000
     HEAD DEP BOUNDS =       40807.2812       HEAD DEP BOUNDS =         554.3604

            TOTAL IN =       65801.7344              TOTAL IN =         554.4719

          OUT:                                     OUT:
          ----                                     ----
             STORAGE =           0.0000               STORAGE =           0.0000
       CONSTANT HEAD =           0.0000         CONSTANT HEAD =           0.0000
               WELLS =           0.0000                 WELLS =           0.0000
     HEAD DEP BOUNDS =       65801.9141       HEAD DEP BOUNDS =         554.4818

           TOTAL OUT =       65801.9141             TOTAL OUT =         554.4818

            IN - OUT =          -0.1797              IN - OUT =      -9.9487E-03

 PERCENT DISCREPANCY =          -0.00     PERCENT DISCREPANCY =          -0.00






         TIME SUMMARY AT END OF TIME STEP   87 IN STRESS PERIOD    2
                    SECONDS     MINUTES      HOURS       DAYS        YEARS
                    -----------------------------------------------------------
   TIME STEP LENGTH  86400.      1440.0      24.000      1.0000     2.73785E-03
 STRESS PERIOD TIME 7.51680E+06 1.25280E+05  2088.0      87.000     0.23819    
         TOTAL TIME 7.60320E+06 1.26720E+05  2112.0      88.000     0.24093    
1

 SOLVING FOR HEAD 

 OUTPUT CONTROL FOR STRESS PERIOD    2   TIME STEP   88
    SAVE HEAD FOR ALL LAYERS
    SAVE DRAWDOWN FOR ALL LAYERS
    SAVE BUDGET
    PRINT HEAD FOR ALL LAYERS
    PRINT BUDGET
 UBDSV1 SAVING "         STORAGE" ON UNIT  53 AT TIME STEP 88, STRESS PERIOD   2
 UBDSV2 SAVING "   CONSTANT HEAD" ON UNIT  53 AT TIME STEP 88, STRESS PERIOD   2
 UBDSV1 SAVING "FLOW RIGHT FACE " ON UNIT  53 AT TIME STEP 88, STRESS PERIOD   2
 UBDSV1 SAVING "FLOW FRONT FACE " ON UNIT  53 AT TIME STEP 88, STRESS PERIOD   2
1
              HEAD IN LAYER   1 AT END OF TIME STEP  88 IN STRESS PERIOD    2
  ---------------------------------------------------------------------------

            1           2           3           4           5           6           7           8           9          10
 ........................................................................................................................
   1    9.991       8.882       7.773       6.664       5.556       4.447       3.338       2.229       1.120      1.1090E-02
   2    9.991       8.882       7.773       6.664       5.556       4.447       3.338       2.229       1.120      1.1090E-02
   3    9.991       8.882       7.773       6.664       5.556       4.447       3.338       2.229       1.120      1.1090E-02
   4    9.991       8.882       7.773       6.664       5.556       4.447       3.338       2.229       1.120      1.1090E-02
   5    9.991       8.882       7.773       6.664       5.556       4.447       3.338       2.229       1.120      1.1090E-02
   6    9.991       8.882       7.773       6.664       5.556       4.447       3.338       2.229       1.120      1.1090E-02
   7    9.991       8.882       7.773       6.664       5.556       4.447       3.338       2.229       1.120      1.1090E-02
   8    9.991       8.882       7.773       6.664       5.556       4.447       3.338       2.229       1.120      1.1090E-02
   9    9.991       8.882       7.773       6.664       5.556       4.447       3.338       2.229       1.120      1.1090E-02
  10    9.991       8.882       7.773       6.664       5.556       4.447       3.338       2.229       1.120      1.1090E-02

 HEAD WILL BE SAVED ON UNIT   51 AT END OF TIME STEP   88, STRESS PERIOD    2

 DRAWDOWN WILL BE SAVED ON UNIT   52 AT END OF TIME STEP   88, STRESS PERIOD    2
1
  VOLUMETRIC BUDGET FOR ENTIRE MODEL AT END OF TIME STEP   88, STRESS PERIOD   2
  ------------------------------------------------------------------------------

     CUMULATIVE VOLUMES      L**3       RATES FOR THIS TIME STEP      L**3/T
     ------------------                 ------------------------

           IN:                                      IN:
           ---                                      ---
             STORAGE =       24994.5488               STORAGE =       9.9547E-02
       CONSTANT HEAD =           0.0000         CONSTANT HEAD =           0.0000
               WELLS =           0.0000                 WELLS =           0.0000
     HEAD DEP BOUNDS =       41361.6484       HEAD DEP BOUNDS =         554.3663

            TOTAL IN =       66356.1953              TOTAL IN =         554.4658

          OUT:                                     OUT:
          ----                                     ----
             STORAGE =           0.0000               STORAGE =           0.0000
       CONSTANT HEAD =           0.0000         CONSTANT HEAD =           0.0000
               WELLS =           0.0000                 WELLS =           0.0000
     HEAD DEP BOUNDS =       66356.3906       HEAD DEP BOUNDS =         554.4759

           TOTAL OUT =       66356.3906             TOTAL OUT =         554.4759

            IN - OUT =          -0.1953              IN - OUT =      -1.0071E-02

 PERCENT DISCREPANCY =          -0.00     PERCENT DISCREPANCY =          -0.00






         TIME SUMMARY AT END OF TIME STEP   88 IN STRESS PERIOD    2
                    SECONDS     MINUTES      HOURS       DAYS        YEARS
                    -----------------------------------------------------------
   TIME STEP LENGTH  86400.      1440.0      24.000      1.0000     2.73785E-03
 STRESS PERIOD TIME 7.60320E+06 1.26720E+05  2112.0      88.000     0.24093    
         TOTAL TIME 7.68960E+06 1.28160E+05  2136.0      89.000     0.24367    
1

 SOLVING FOR HEAD 

 OUTPUT CONTROL FOR STRESS PERIOD    2   TIME STEP   89
    SAVE HEAD FOR ALL LAYERS
    SAVE DRAWDOWN FOR ALL LAYERS
    SAVE BUDGET
    PRINT HEAD FOR ALL LAYERS
    PRINT BUDGET
 UBDSV1 SAVING "         STORAGE" ON UNIT  53 AT TIME STEP 89, STRESS PERIOD   2
 UBDSV2 SAVING "   CONSTANT HEAD" ON UNIT  53 AT TIME STEP 89, STRESS PERIOD   2
 UBDSV1 SAVING "FLOW RIGHT FACE " ON UNIT  53 AT TIME STEP 89, STRESS PERIOD   2
 UBDSV1 SAVING "FLOW FRONT FACE " ON UNIT  53 AT TIME STEP 89, STRESS PERIOD   2
1
              HEAD IN LAYER   1 AT END OF TIME STEP  89 IN STRESS PERIOD    2
  ---------------------------------------------------------------------------

            1           2           3           4           5           6           7           8           9          10
 ........................................................................................................................
   1    9.991       8.882       7.773       6.664       5.556       4.447       3.338       2.229       1.120      1.1089E-02
   2    9.991       8.882       7.773       6.664       5.556       4.447       3.338       2.229       1.120      1.1089E-02
   3    9.991       8.882       7.773       6.664       5.556       4.447       3.338       2.229       1.120      1.1089E-02
   4    9.991       8.882       7.773       6.664       5.556       4.447       3.338       2.229       1.120      1.1089E-02
   5    9.991       8.882       7.773       6.664       5.556       4.447       3.338       2.229       1.120      1.1089E-02
   6    9.991       8.882       7.773       6.664       5.556       4.447       3.338       2.229       1.120      1.1089E-02
   7    9.991       8.882       7.773       6.664       5.556       4.447       3.338       2.229       1.120      1.1089E-02
   8    9.991       8.882       7.773       6.664       5.556       4.447       3.338       2.229       1.120      1.1089E-02
   9    9.991       8.882       7.773       6.664       5.556       4.447       3.338       2.229       1.120      1.1089E-02
  10    9.991       8.882       7.773       6.664       5.556       4.447       3.338       2.229       1.120      1.1089E-02

 HEAD WILL BE SAVED ON UNIT   51 AT END OF TIME STEP   89, STRESS PERIOD    2

 DRAWDOWN WILL BE SAVED ON UNIT   52 AT END OF TIME STEP   89, STRESS PERIOD    2
1
  VOLUMETRIC BUDGET FOR ENTIRE MODEL AT END OF TIME STEP   89, STRESS PERIOD   2
  ------------------------------------------------------------------------------

     CUMULATIVE VOLUMES      L**3       RATES FOR THIS TIME STEP      L**3/T
     ------------------                 ------------------------

           IN:                                      IN:
           ---                                      ---
             STORAGE =       24994.6367               STORAGE =       8.8440E-02
       CONSTANT HEAD =           0.0000         CONSTANT HEAD =           0.0000
               WELLS =           0.0000                 WELLS =           0.0000
     HEAD DEP BOUNDS =       41916.0195       HEAD DEP BOUNDS =         554.3715

            TOTAL IN =       66910.6562              TOTAL IN =         554.4600

          OUT:                                     OUT:
          ----                                     ----
             STORAGE =           0.0000               STORAGE =           0.0000
       CONSTANT HEAD =           0.0000         CONSTANT HEAD =           0.0000
               WELLS =           0.0000                 WELLS =           0.0000
     HEAD DEP BOUNDS =       66910.8594       HEAD DEP BOUNDS =         554.4705

           TOTAL OUT =       66910.8594             TOTAL OUT =         554.4705

            IN - OUT =          -0.2031              IN - OUT =      -1.0559E-02

 PERCENT DISCREPANCY =          -0.00     PERCENT DISCREPANCY =          -0.00






         TIME SUMMARY AT END OF TIME STEP   89 IN STRESS PERIOD    2
                    SECONDS     MINUTES      HOURS       DAYS        YEARS
                    -----------------------------------------------------------
   TIME STEP LENGTH  86400.      1440.0      24.000      1.0000     2.73785E-03
 STRESS PERIOD TIME 7.68960E+06 1.28160E+05  2136.0      89.000     0.24367    
         TOTAL TIME 7.77600E+06 1.29600E+05  2160.0      90.000     0.24641    
1

 SOLVING FOR HEAD 

 OUTPUT CONTROL FOR STRESS PERIOD    2   TIME STEP   90
    SAVE HEAD FOR ALL LAYERS
    SAVE DRAWDOWN FOR ALL LAYERS
    SAVE BUDGET
    PRINT HEAD FOR ALL LAYERS
    PRINT BUDGET
 UBDSV1 SAVING "         STORAGE" ON UNIT  53 AT TIME STEP 90, STRESS PERIOD   2
 UBDSV2 SAVING "   CONSTANT HEAD" ON UNIT  53 AT TIME STEP 90, STRESS PERIOD   2
 UBDSV1 SAVING "FLOW RIGHT FACE " ON UNIT  53 AT TIME STEP 90, STRESS PERIOD   2
 UBDSV1 SAVING "FLOW FRONT FACE " ON UNIT  53 AT TIME STEP 90, STRESS PERIOD   2
1
              HEAD IN LAYER   1 AT END OF TIME STEP  90 IN STRESS PERIOD    2
  ---------------------------------------------------------------------------

            1           2           3           4           5           6           7           8           9          10
 ........................................................................................................................
   1    9.991       8.882       7.773       6.664       5.556       4.447       3.338       2.229       1.120      1.1089E-02
   2    9.991       8.882       7.773       6.664       5.556       4.447       3.338       2.229       1.120      1.1089E-02
   3    9.991       8.882       7.773       6.664       5.556       4.447       3.338       2.229       1.120      1.1089E-02
   4    9.991       8.882       7.773       6.664       5.556       4.447       3.338       2.229       1.120      1.1089E-02
   5    9.991       8.882       7.773       6.664       5.556       4.447       3.338       2.229       1.120      1.1089E-02
   6    9.991       8.882       7.773       6.664       5.556       4.447       3.338       2.229       1.120      1.1089E-02
   7    9.991       8.882       7.773       6.664       5.556       4.447       3.338       2.229       1.120      1.1089E-02
   8    9.991       8.882       7.773       6.664       5.556       4.447       3.338       2.229       1.120      1.1089E-02
   9    9.991       8.882       7.773       6.664       5.556       4.447       3.338       2.229       1.120      1.1089E-02
  10    9.991       8.882       7.773       6.664       5.556       4.447       3.338       2.229       1.120      1.1089E-02

 HEAD WILL BE SAVED ON UNIT   51 AT END OF TIME STEP   90, STRESS PERIOD    2

 DRAWDOWN WILL BE SAVED ON UNIT   52 AT END OF TIME STEP   90, STRESS PERIOD    2
1
  VOLUMETRIC BUDGET FOR ENTIRE MODEL AT END OF TIME STEP   90, STRESS PERIOD   2
  ------------------------------------------------------------------------------

     CUMULATIVE VOLUMES      L**3       RATES FOR THIS TIME STEP      L**3/T
     ------------------                 ------------------------

           IN:                                      IN:
           ---                                      ---
             STORAGE =       24994.7148               STORAGE =       7.8859E-02
       CONSTANT HEAD =           0.0000         CONSTANT HEAD =           0.0000
               WELLS =           0.0000                 WELLS =           0.0000
     HEAD DEP BOUNDS =       42470.3945       HEAD DEP BOUNDS =         554.3762

            TOTAL IN =       67465.1094              TOTAL IN =         554.4550

          OUT:                                     OUT:
          ----                                     ----
             STORAGE =           0.0000               STORAGE =           0.0000
       CONSTANT HEAD =           0.0000         CONSTANT HEAD =           0.0000
               WELLS =           0.0000                 WELLS =           0.0000
     HEAD DEP BOUNDS =       67465.3281       HEAD DEP BOUNDS =         554.4658

           TOTAL OUT =       67465.3281             TOTAL OUT =         554.4658

            IN - OUT =          -0.2188              IN - OUT =      -1.0742E-02

 PERCENT DISCREPANCY =          -0.00     PERCENT DISCREPANCY =          -0.00






         TIME SUMMARY AT END OF TIME STEP   90 IN STRESS PERIOD    2
                    SECONDS     MINUTES      HOURS       DAYS        YEARS
                    -----------------------------------------------------------
   TIME STEP LENGTH  86400.      1440.0      24.000      1.0000     2.73785E-03
 STRESS PERIOD TIME 7.77600E+06 1.29600E+05  2160.0      90.000     0.24641    
         TOTAL TIME 7.86240E+06 1.31040E+05  2184.0      91.000     0.24914    
1

 SOLVING FOR HEAD 

 OUTPUT CONTROL FOR STRESS PERIOD    2   TIME STEP   91
    SAVE HEAD FOR ALL LAYERS
    SAVE DRAWDOWN FOR ALL LAYERS
    SAVE BUDGET
    PRINT HEAD FOR ALL LAYERS
    PRINT BUDGET
 UBDSV1 SAVING "         STORAGE" ON UNIT  53 AT TIME STEP 91, STRESS PERIOD   2
 UBDSV2 SAVING "   CONSTANT HEAD" ON UNIT  53 AT TIME STEP 91, STRESS PERIOD   2
 UBDSV1 SAVING "FLOW RIGHT FACE " ON UNIT  53 AT TIME STEP 91, STRESS PERIOD   2
 UBDSV1 SAVING "FLOW FRONT FACE " ON UNIT  53 AT TIME STEP 91, STRESS PERIOD   2
1
              HEAD IN LAYER   1 AT END OF TIME STEP  91 IN STRESS PERIOD    2
  ---------------------------------------------------------------------------

            1           2           3           4           5           6           7           8           9          10
 ........................................................................................................................
   1    9.991       8.882       7.773       6.664       5.556       4.447       3.338       2.229       1.120      1.1089E-02
   2    9.991       8.882       7.773       6.664       5.556       4.447       3.338       2.229       1.120      1.1089E-02
   3    9.991       8.882       7.773       6.664       5.556       4.447       3.338       2.229       1.120      1.1089E-02
   4    9.991       8.882       7.773       6.664       5.556       4.447       3.338       2.229       1.120      1.1089E-02
   5    9.991       8.882       7.773       6.664       5.556       4.447       3.338       2.229       1.120      1.1089E-02
   6    9.991       8.882       7.773       6.664       5.556       4.447       3.338       2.229       1.120      1.1089E-02
   7    9.991       8.882       7.773       6.664       5.556       4.447       3.338       2.229       1.120      1.1089E-02
   8    9.991       8.882       7.773       6.664       5.556       4.447       3.338       2.229       1.120      1.1089E-02
   9    9.991       8.882       7.773       6.664       5.556       4.447       3.338       2.229       1.120      1.1089E-02
  10    9.991       8.882       7.773       6.664       5.556       4.447       3.338       2.229       1.120      1.1089E-02

 HEAD WILL BE SAVED ON UNIT   51 AT END OF TIME STEP   91, STRESS PERIOD    2

 DRAWDOWN WILL BE SAVED ON UNIT   52 AT END OF TIME STEP   91, STRESS PERIOD    2
1
  VOLUMETRIC BUDGET FOR ENTIRE MODEL AT END OF TIME STEP   91, STRESS PERIOD   2
  ------------------------------------------------------------------------------

     CUMULATIVE VOLUMES      L**3       RATES FOR THIS TIME STEP      L**3/T
     ------------------                 ------------------------

           IN:                                      IN:
           ---                                      ---
             STORAGE =       24994.7852               STORAGE =       7.0729E-02
       CONSTANT HEAD =           0.0000         CONSTANT HEAD =           0.0000
               WELLS =           0.0000                 WELLS =           0.0000
     HEAD DEP BOUNDS =       43024.7734       HEAD DEP BOUNDS =         554.3804

            TOTAL IN =       68019.5625              TOTAL IN =         554.4511

          OUT:                                     OUT:
          ----                                     ----
             STORAGE =           0.0000               STORAGE =           0.0000
       CONSTANT HEAD =           0.0000         CONSTANT HEAD =           0.0000
               WELLS =           0.0000                 WELLS =           0.0000
     HEAD DEP BOUNDS =       68019.7891       HEAD DEP BOUNDS =         554.4615

           TOTAL OUT =       68019.7891             TOTAL OUT =         554.4615

            IN - OUT =          -0.2266              IN - OUT =      -1.0437E-02

 PERCENT DISCREPANCY =          -0.00     PERCENT DISCREPANCY =          -0.00






         TIME SUMMARY AT END OF TIME STEP   91 IN STRESS PERIOD    2
                    SECONDS     MINUTES      HOURS       DAYS        YEARS
                    -----------------------------------------------------------
   TIME STEP LENGTH  86400.      1440.0      24.000      1.0000     2.73785E-03
 STRESS PERIOD TIME 7.86240E+06 1.31040E+05  2184.0      91.000     0.24914    
         TOTAL TIME 7.94880E+06 1.32480E+05  2208.0      92.000     0.25188    
1

 SOLVING FOR HEAD 

 OUTPUT CONTROL FOR STRESS PERIOD    2   TIME STEP   92
    SAVE HEAD FOR ALL LAYERS
    SAVE DRAWDOWN FOR ALL LAYERS
    SAVE BUDGET
    PRINT HEAD FOR ALL LAYERS
    PRINT BUDGET
 UBDSV1 SAVING "         STORAGE" ON UNIT  53 AT TIME STEP 92, STRESS PERIOD   2
 UBDSV2 SAVING "   CONSTANT HEAD" ON UNIT  53 AT TIME STEP 92, STRESS PERIOD   2
 UBDSV1 SAVING "FLOW RIGHT FACE " ON UNIT  53 AT TIME STEP 92, STRESS PERIOD   2
 UBDSV1 SAVING "FLOW FRONT FACE " ON UNIT  53 AT TIME STEP 92, STRESS PERIOD   2
1
              HEAD IN LAYER   1 AT END OF TIME STEP  92 IN STRESS PERIOD    2
  ---------------------------------------------------------------------------

            1           2           3           4           5           6           7           8           9          10
 ........................................................................................................................
   1    9.991       8.882       7.773       6.664       5.556       4.447       3.338       2.229       1.120      1.1089E-02
   2    9.991       8.882       7.773       6.664       5.556       4.447       3.338       2.229       1.120      1.1089E-02
   3    9.991       8.882       7.773       6.664       5.556       4.447       3.338       2.229       1.120      1.1089E-02
   4    9.991       8.882       7.773       6.664       5.556       4.447       3.338       2.229       1.120      1.1089E-02
   5    9.991       8.882       7.773       6.664       5.556       4.447       3.338       2.229       1.120      1.1089E-02
   6    9.991       8.882       7.773       6.664       5.556       4.447       3.338       2.229       1.120      1.1089E-02
   7    9.991       8.882       7.773       6.664       5.556       4.447       3.338       2.229       1.120      1.1089E-02
   8    9.991       8.882       7.773       6.664       5.556       4.447       3.338       2.229       1.120      1.1089E-02
   9    9.991       8.882       7.773       6.664       5.556       4.447       3.338       2.229       1.120      1.1089E-02
  10    9.991       8.882       7.773       6.664       5.556       4.447       3.338       2.229       1.120      1.1089E-02

 HEAD WILL BE SAVED ON UNIT   51 AT END OF TIME STEP   92, STRESS PERIOD    2

 DRAWDOWN WILL BE SAVED ON UNIT   52 AT END OF TIME STEP   92, STRESS PERIOD    2
1
  VOLUMETRIC BUDGET FOR ENTIRE MODEL AT END OF TIME STEP   92, STRESS PERIOD   2
  ------------------------------------------------------------------------------

     CUMULATIVE VOLUMES      L**3       RATES FOR THIS TIME STEP      L**3/T
     ------------------                 ------------------------

           IN:                                      IN:
           ---                                      ---
             STORAGE =       24994.8477               STORAGE =       6.2904E-02
       CONSTANT HEAD =           0.0000         CONSTANT HEAD =           0.0000
               WELLS =           0.0000                 WELLS =           0.0000
     HEAD DEP BOUNDS =       43579.1562       HEAD DEP BOUNDS =         554.3841

            TOTAL IN =       68574.0000              TOTAL IN =         554.4470

          OUT:                                     OUT:
          ----                                     ----
             STORAGE =           0.0000               STORAGE =           0.0000
       CONSTANT HEAD =           0.0000         CONSTANT HEAD =           0.0000
               WELLS =           0.0000                 WELLS =           0.0000
     HEAD DEP BOUNDS =       68574.2500       HEAD DEP BOUNDS =         554.4577

           TOTAL OUT =       68574.2500             TOTAL OUT =         554.4577

            IN - OUT =          -0.2500              IN - OUT =      -1.0681E-02

 PERCENT DISCREPANCY =          -0.00     PERCENT DISCREPANCY =          -0.00






         TIME SUMMARY AT END OF TIME STEP   92 IN STRESS PERIOD    2
                    SECONDS     MINUTES      HOURS       DAYS        YEARS
                    -----------------------------------------------------------
   TIME STEP LENGTH  86400.      1440.0      24.000      1.0000     2.73785E-03
 STRESS PERIOD TIME 7.94880E+06 1.32480E+05  2208.0      92.000     0.25188    
         TOTAL TIME 8.03520E+06 1.33920E+05  2232.0      93.000     0.25462    
1

 SOLVING FOR HEAD 

 OUTPUT CONTROL FOR STRESS PERIOD    2   TIME STEP   93
    SAVE HEAD FOR ALL LAYERS
    SAVE DRAWDOWN FOR ALL LAYERS
    SAVE BUDGET
    PRINT HEAD FOR ALL LAYERS
    PRINT BUDGET
 UBDSV1 SAVING "         STORAGE" ON UNIT  53 AT TIME STEP 93, STRESS PERIOD   2
 UBDSV2 SAVING "   CONSTANT HEAD" ON UNIT  53 AT TIME STEP 93, STRESS PERIOD   2
 UBDSV1 SAVING "FLOW RIGHT FACE " ON UNIT  53 AT TIME STEP 93, STRESS PERIOD   2
 UBDSV1 SAVING "FLOW FRONT FACE " ON UNIT  53 AT TIME STEP 93, STRESS PERIOD   2
1
              HEAD IN LAYER   1 AT END OF TIME STEP  93 IN STRESS PERIOD    2
  ---------------------------------------------------------------------------

            1           2           3           4           5           6           7           8           9          10
 ........................................................................................................................
   1    9.991       8.882       7.773       6.664       5.556       4.447       3.338       2.229       1.120      1.1089E-02
   2    9.991       8.882       7.773       6.664       5.556       4.447       3.338       2.229       1.120      1.1089E-02
   3    9.991       8.882       7.773       6.664       5.556       4.447       3.338       2.229       1.120      1.1089E-02
   4    9.991       8.882       7.773       6.664       5.556       4.447       3.338       2.229       1.120      1.1089E-02
   5    9.991       8.882       7.773       6.664       5.556       4.447       3.338       2.229       1.120      1.1089E-02
   6    9.991       8.882       7.773       6.664       5.556       4.447       3.338       2.229       1.120      1.1089E-02
   7    9.991       8.882       7.773       6.664       5.556       4.447       3.338       2.229       1.120      1.1089E-02
   8    9.991       8.882       7.773       6.664       5.556       4.447       3.338       2.229       1.120      1.1089E-02
   9    9.991       8.882       7.773       6.664       5.556       4.447       3.338       2.229       1.120      1.1089E-02
  10    9.991       8.882       7.773       6.664       5.556       4.447       3.338       2.229       1.120      1.1089E-02

 HEAD WILL BE SAVED ON UNIT   51 AT END OF TIME STEP   93, STRESS PERIOD    2

 DRAWDOWN WILL BE SAVED ON UNIT   52 AT END OF TIME STEP   93, STRESS PERIOD    2
1
  VOLUMETRIC BUDGET FOR ENTIRE MODEL AT END OF TIME STEP   93, STRESS PERIOD   2
  ------------------------------------------------------------------------------

     CUMULATIVE VOLUMES      L**3       RATES FOR THIS TIME STEP      L**3/T
     ------------------                 ------------------------

           IN:                                      IN:
           ---                                      ---
             STORAGE =       24994.9043               STORAGE =       5.6224E-02
       CONSTANT HEAD =           0.0000         CONSTANT HEAD =           0.0000
               WELLS =           0.0000                 WELLS =           0.0000
     HEAD DEP BOUNDS =       44133.5430       HEAD DEP BOUNDS =         554.3874

            TOTAL IN =       69128.4453              TOTAL IN =         554.4436

          OUT:                                     OUT:
          ----                                     ----
             STORAGE =           0.0000               STORAGE =           0.0000
       CONSTANT HEAD =           0.0000         CONSTANT HEAD =           0.0000
               WELLS =           0.0000                 WELLS =           0.0000
     HEAD DEP BOUNDS =       69128.7031       HEAD DEP BOUNDS =         554.4543

           TOTAL OUT =       69128.7031             TOTAL OUT =         554.4543

            IN - OUT =          -0.2578              IN - OUT =      -1.0742E-02

 PERCENT DISCREPANCY =          -0.00     PERCENT DISCREPANCY =          -0.00






         TIME SUMMARY AT END OF TIME STEP   93 IN STRESS PERIOD    2
                    SECONDS     MINUTES      HOURS       DAYS        YEARS
                    -----------------------------------------------------------
   TIME STEP LENGTH  86400.      1440.0      24.000      1.0000     2.73785E-03
 STRESS PERIOD TIME 8.03520E+06 1.33920E+05  2232.0      93.000     0.25462    
         TOTAL TIME 8.12160E+06 1.35360E+05  2256.0      94.000     0.25736    
1

 SOLVING FOR HEAD 

 OUTPUT CONTROL FOR STRESS PERIOD    2   TIME STEP   94
    SAVE HEAD FOR ALL LAYERS
    SAVE DRAWDOWN FOR ALL LAYERS
    SAVE BUDGET
    PRINT HEAD FOR ALL LAYERS
    PRINT BUDGET
 UBDSV1 SAVING "         STORAGE" ON UNIT  53 AT TIME STEP 94, STRESS PERIOD   2
 UBDSV2 SAVING "   CONSTANT HEAD" ON UNIT  53 AT TIME STEP 94, STRESS PERIOD   2
 UBDSV1 SAVING "FLOW RIGHT FACE " ON UNIT  53 AT TIME STEP 94, STRESS PERIOD   2
 UBDSV1 SAVING "FLOW FRONT FACE " ON UNIT  53 AT TIME STEP 94, STRESS PERIOD   2
1
              HEAD IN LAYER   1 AT END OF TIME STEP  94 IN STRESS PERIOD    2
  ---------------------------------------------------------------------------

            1           2           3           4           5           6           7           8           9          10
 ........................................................................................................................
   1    9.991       8.882       7.773       6.664       5.555       4.447       3.338       2.229       1.120      1.1089E-02
   2    9.991       8.882       7.773       6.664       5.555       4.447       3.338       2.229       1.120      1.1089E-02
   3    9.991       8.882       7.773       6.664       5.555       4.447       3.338       2.229       1.120      1.1089E-02
   4    9.991       8.882       7.773       6.664       5.555       4.447       3.338       2.229       1.120      1.1089E-02
   5    9.991       8.882       7.773       6.664       5.555       4.447       3.338       2.229       1.120      1.1089E-02
   6    9.991       8.882       7.773       6.664       5.555       4.447       3.338       2.229       1.120      1.1089E-02
   7    9.991       8.882       7.773       6.664       5.555       4.447       3.338       2.229       1.120      1.1089E-02
   8    9.991       8.882       7.773       6.664       5.555       4.447       3.338       2.229       1.120      1.1089E-02
   9    9.991       8.882       7.773       6.664       5.555       4.447       3.338       2.229       1.120      1.1089E-02
  10    9.991       8.882       7.773       6.664       5.555       4.447       3.338       2.229       1.120      1.1089E-02

 HEAD WILL BE SAVED ON UNIT   51 AT END OF TIME STEP   94, STRESS PERIOD    2

 DRAWDOWN WILL BE SAVED ON UNIT   52 AT END OF TIME STEP   94, STRESS PERIOD    2
1
  VOLUMETRIC BUDGET FOR ENTIRE MODEL AT END OF TIME STEP   94, STRESS PERIOD   2
  ------------------------------------------------------------------------------

     CUMULATIVE VOLUMES      L**3       RATES FOR THIS TIME STEP      L**3/T
     ------------------                 ------------------------

           IN:                                      IN:
           ---                                      ---
             STORAGE =       24994.9551               STORAGE =       5.0803E-02
       CONSTANT HEAD =           0.0000         CONSTANT HEAD =           0.0000
               WELLS =           0.0000                 WELLS =           0.0000
     HEAD DEP BOUNDS =       44687.9336       HEAD DEP BOUNDS =         554.3904

            TOTAL IN =       69682.8906              TOTAL IN =         554.4412

          OUT:                                     OUT:
          ----                                     ----
             STORAGE =           0.0000               STORAGE =           0.0000
       CONSTANT HEAD =           0.0000         CONSTANT HEAD =           0.0000
               WELLS =           0.0000                 WELLS =           0.0000
     HEAD DEP BOUNDS =       69683.1562       HEAD DEP BOUNDS =         554.4514

           TOTAL OUT =       69683.1562             TOTAL OUT =         554.4514

            IN - OUT =          -0.2656              IN - OUT =      -1.0193E-02

 PERCENT DISCREPANCY =          -0.00     PERCENT DISCREPANCY =          -0.00






         TIME SUMMARY AT END OF TIME STEP   94 IN STRESS PERIOD    2
                    SECONDS     MINUTES      HOURS       DAYS        YEARS
                    -----------------------------------------------------------
   TIME STEP LENGTH  86400.      1440.0      24.000      1.0000     2.73785E-03
 STRESS PERIOD TIME 8.12160E+06 1.35360E+05  2256.0      94.000     0.25736    
         TOTAL TIME 8.20800E+06 1.36800E+05  2280.0      95.000     0.26010    
1

 SOLVING FOR HEAD 

 OUTPUT CONTROL FOR STRESS PERIOD    2   TIME STEP   95
    SAVE HEAD FOR ALL LAYERS
    SAVE DRAWDOWN FOR ALL LAYERS
    SAVE BUDGET
    PRINT HEAD FOR ALL LAYERS
    PRINT BUDGET
 UBDSV1 SAVING "         STORAGE" ON UNIT  53 AT TIME STEP 95, STRESS PERIOD   2
 UBDSV2 SAVING "   CONSTANT HEAD" ON UNIT  53 AT TIME STEP 95, STRESS PERIOD   2
 UBDSV1 SAVING "FLOW RIGHT FACE " ON UNIT  53 AT TIME STEP 95, STRESS PERIOD   2
 UBDSV1 SAVING "FLOW FRONT FACE " ON UNIT  53 AT TIME STEP 95, STRESS PERIOD   2
1
              HEAD IN LAYER   1 AT END OF TIME STEP  95 IN STRESS PERIOD    2
  ---------------------------------------------------------------------------

            1           2           3           4           5           6           7           8           9          10
 ........................................................................................................................
   1    9.991       8.882       7.773       6.664       5.555       4.447       3.338       2.229       1.120      1.1089E-02
   2    9.991       8.882       7.773       6.664       5.555       4.447       3.338       2.229       1.120      1.1089E-02
   3    9.991       8.882       7.773       6.664       5.555       4.447       3.338       2.229       1.120      1.1089E-02
   4    9.991       8.882       7.773       6.664       5.555       4.447       3.338       2.229       1.120      1.1089E-02
   5    9.991       8.882       7.773       6.664       5.555       4.447       3.338       2.229       1.120      1.1089E-02
   6    9.991       8.882       7.773       6.664       5.555       4.447       3.338       2.229       1.120      1.1089E-02
   7    9.991       8.882       7.773       6.664       5.555       4.447       3.338       2.229       1.120      1.1089E-02
   8    9.991       8.882       7.773       6.664       5.555       4.447       3.338       2.229       1.120      1.1089E-02
   9    9.991       8.882       7.773       6.664       5.555       4.447       3.338       2.229       1.120      1.1089E-02
  10    9.991       8.882       7.773       6.664       5.555       4.447       3.338       2.229       1.120      1.1089E-02

 HEAD WILL BE SAVED ON UNIT   51 AT END OF TIME STEP   95, STRESS PERIOD    2

 DRAWDOWN WILL BE SAVED ON UNIT   52 AT END OF TIME STEP   95, STRESS PERIOD    2
1
  VOLUMETRIC BUDGET FOR ENTIRE MODEL AT END OF TIME STEP   95, STRESS PERIOD   2
  ------------------------------------------------------------------------------

     CUMULATIVE VOLUMES      L**3       RATES FOR THIS TIME STEP      L**3/T
     ------------------                 ------------------------

           IN:                                      IN:
           ---                                      ---
             STORAGE =       24995.0000               STORAGE =       4.5269E-02
       CONSTANT HEAD =           0.0000         CONSTANT HEAD =           0.0000
               WELLS =           0.0000                 WELLS =           0.0000
     HEAD DEP BOUNDS =       45242.3281       HEAD DEP BOUNDS =         554.3932

            TOTAL IN =       70237.3281              TOTAL IN =         554.4385

          OUT:                                     OUT:
          ----                                     ----
             STORAGE =           0.0000               STORAGE =           0.0000
       CONSTANT HEAD =           0.0000         CONSTANT HEAD =           0.0000
               WELLS =           0.0000                 WELLS =           0.0000
     HEAD DEP BOUNDS =       70237.6016       HEAD DEP BOUNDS =         554.4487

           TOTAL OUT =       70237.6016             TOTAL OUT =         554.4487

            IN - OUT =          -0.2734              IN - OUT =      -1.0193E-02

 PERCENT DISCREPANCY =          -0.00     PERCENT DISCREPANCY =          -0.00






         TIME SUMMARY AT END OF TIME STEP   95 IN STRESS PERIOD    2
                    SECONDS     MINUTES      HOURS       DAYS        YEARS
                    -----------------------------------------------------------
   TIME STEP LENGTH  86400.      1440.0      24.000      1.0000     2.73785E-03
 STRESS PERIOD TIME 8.20800E+06 1.36800E+05  2280.0      95.000     0.26010    
         TOTAL TIME 8.29440E+06 1.38240E+05  2304.0      96.000     0.26283    
1

 SOLVING FOR HEAD 

 OUTPUT CONTROL FOR STRESS PERIOD    2   TIME STEP   96
    SAVE HEAD FOR ALL LAYERS
    SAVE DRAWDOWN FOR ALL LAYERS
    SAVE BUDGET
    PRINT HEAD FOR ALL LAYERS
    PRINT BUDGET
 UBDSV1 SAVING "         STORAGE" ON UNIT  53 AT TIME STEP 96, STRESS PERIOD   2
 UBDSV2 SAVING "   CONSTANT HEAD" ON UNIT  53 AT TIME STEP 96, STRESS PERIOD   2
 UBDSV1 SAVING "FLOW RIGHT FACE " ON UNIT  53 AT TIME STEP 96, STRESS PERIOD   2
 UBDSV1 SAVING "FLOW FRONT FACE " ON UNIT  53 AT TIME STEP 96, STRESS PERIOD   2
1
              HEAD IN LAYER   1 AT END OF TIME STEP  96 IN STRESS PERIOD    2
  ---------------------------------------------------------------------------

            1           2           3           4           5           6           7           8           9          10
 ........................................................................................................................
   1    9.991       8.882       7.773       6.664       5.555       4.447       3.338       2.229       1.120      1.1089E-02
   2    9.991       8.882       7.773       6.664       5.555       4.447       3.338       2.229       1.120      1.1089E-02
   3    9.991       8.882       7.773       6.664       5.555       4.447       3.338       2.229       1.120      1.1089E-02
   4    9.991       8.882       7.773       6.664       5.555       4.447       3.338       2.229       1.120      1.1089E-02
   5    9.991       8.882       7.773       6.664       5.555       4.447       3.338       2.229       1.120      1.1089E-02
   6    9.991       8.882       7.773       6.664       5.555       4.447       3.338       2.229       1.120      1.1089E-02
   7    9.991       8.882       7.773       6.664       5.555       4.447       3.338       2.229       1.120      1.1089E-02
   8    9.991       8.882       7.773       6.664       5.555       4.447       3.338       2.229       1.120      1.1089E-02
   9    9.991       8.882       7.773       6.664       5.555       4.447       3.338       2.229       1.120      1.1089E-02
  10    9.991       8.882       7.773       6.664       5.555       4.447       3.338       2.229       1.120      1.1089E-02

 HEAD WILL BE SAVED ON UNIT   51 AT END OF TIME STEP   96, STRESS PERIOD    2

 DRAWDOWN WILL BE SAVED ON UNIT   52 AT END OF TIME STEP   96, STRESS PERIOD    2
1
  VOLUMETRIC BUDGET FOR ENTIRE MODEL AT END OF TIME STEP   96, STRESS PERIOD   2
  ------------------------------------------------------------------------------

     CUMULATIVE VOLUMES      L**3       RATES FOR THIS TIME STEP      L**3/T
     ------------------                 ------------------------

           IN:                                      IN:
           ---                                      ---
             STORAGE =       24995.0410               STORAGE =       4.0231E-02
       CONSTANT HEAD =           0.0000         CONSTANT HEAD =           0.0000
               WELLS =           0.0000                 WELLS =           0.0000
     HEAD DEP BOUNDS =       45796.7227       HEAD DEP BOUNDS =         554.3956

            TOTAL IN =       70791.7656              TOTAL IN =         554.4358

          OUT:                                     OUT:
          ----                                     ----
             STORAGE =           0.0000               STORAGE =           0.0000
       CONSTANT HEAD =           0.0000         CONSTANT HEAD =           0.0000
               WELLS =           0.0000                 WELLS =           0.0000
     HEAD DEP BOUNDS =       70792.0469       HEAD DEP BOUNDS =         554.4462

           TOTAL OUT =       70792.0469             TOTAL OUT =         554.4462

            IN - OUT =          -0.2812              IN - OUT =      -1.0437E-02

 PERCENT DISCREPANCY =          -0.00     PERCENT DISCREPANCY =          -0.00






         TIME SUMMARY AT END OF TIME STEP   96 IN STRESS PERIOD    2
                    SECONDS     MINUTES      HOURS       DAYS        YEARS
                    -----------------------------------------------------------
   TIME STEP LENGTH  86400.      1440.0      24.000      1.0000     2.73785E-03
 STRESS PERIOD TIME 8.29440E+06 1.38240E+05  2304.0      96.000     0.26283    
         TOTAL TIME 8.38080E+06 1.39680E+05  2328.0      97.000     0.26557    
1

 SOLVING FOR HEAD 

 OUTPUT CONTROL FOR STRESS PERIOD    2   TIME STEP   97
    SAVE HEAD FOR ALL LAYERS
    SAVE DRAWDOWN FOR ALL LAYERS
    SAVE BUDGET
    PRINT HEAD FOR ALL LAYERS
    PRINT BUDGET
 UBDSV1 SAVING "         STORAGE" ON UNIT  53 AT TIME STEP 97, STRESS PERIOD   2
 UBDSV2 SAVING "   CONSTANT HEAD" ON UNIT  53 AT TIME STEP 97, STRESS PERIOD   2
 UBDSV1 SAVING "FLOW RIGHT FACE " ON UNIT  53 AT TIME STEP 97, STRESS PERIOD   2
 UBDSV1 SAVING "FLOW FRONT FACE " ON UNIT  53 AT TIME STEP 97, STRESS PERIOD   2
1
              HEAD IN LAYER   1 AT END OF TIME STEP  97 IN STRESS PERIOD    2
  ---------------------------------------------------------------------------

            1           2           3           4           5           6           7           8           9          10
 ........................................................................................................................
   1    9.991       8.882       7.773       6.664       5.555       4.447       3.338       2.229       1.120      1.1089E-02
   2    9.991       8.882       7.773       6.664       5.555       4.447       3.338       2.229       1.120      1.1089E-02
   3    9.991       8.882       7.773       6.664       5.555       4.447       3.338       2.229       1.120      1.1089E-02
   4    9.991       8.882       7.773       6.664       5.555       4.447       3.338       2.229       1.120      1.1089E-02
   5    9.991       8.882       7.773       6.664       5.555       4.447       3.338       2.229       1.120      1.1089E-02
   6    9.991       8.882       7.773       6.664       5.555       4.447       3.338       2.229       1.120      1.1089E-02
   7    9.991       8.882       7.773       6.664       5.555       4.447       3.338       2.229       1.120      1.1089E-02
   8    9.991       8.882       7.773       6.664       5.555       4.447       3.338       2.229       1.120      1.1089E-02
   9    9.991       8.882       7.773       6.664       5.555       4.447       3.338       2.229       1.120      1.1089E-02
  10    9.991       8.882       7.773       6.664       5.555       4.447       3.338       2.229       1.120      1.1089E-02

 HEAD WILL BE SAVED ON UNIT   51 AT END OF TIME STEP   97, STRESS PERIOD    2

 DRAWDOWN WILL BE SAVED ON UNIT   52 AT END OF TIME STEP   97, STRESS PERIOD    2
1
  VOLUMETRIC BUDGET FOR ENTIRE MODEL AT END OF TIME STEP   97, STRESS PERIOD   2
  ------------------------------------------------------------------------------

     CUMULATIVE VOLUMES      L**3       RATES FOR THIS TIME STEP      L**3/T
     ------------------                 ------------------------

           IN:                                      IN:
           ---                                      ---
             STORAGE =       24995.0762               STORAGE =       3.5155E-02
       CONSTANT HEAD =           0.0000         CONSTANT HEAD =           0.0000
               WELLS =           0.0000                 WELLS =           0.0000
     HEAD DEP BOUNDS =       46351.1211       HEAD DEP BOUNDS =         554.3978

            TOTAL IN =       71346.1953              TOTAL IN =         554.4329

          OUT:                                     OUT:
          ----                                     ----
             STORAGE =           0.0000               STORAGE =           0.0000
       CONSTANT HEAD =           0.0000         CONSTANT HEAD =           0.0000
               WELLS =           0.0000                 WELLS =           0.0000
     HEAD DEP BOUNDS =       71346.4922       HEAD DEP BOUNDS =         554.4441

           TOTAL OUT =       71346.4922             TOTAL OUT =         554.4441

            IN - OUT =          -0.2969              IN - OUT =      -1.1169E-02

 PERCENT DISCREPANCY =          -0.00     PERCENT DISCREPANCY =          -0.00






         TIME SUMMARY AT END OF TIME STEP   97 IN STRESS PERIOD    2
                    SECONDS     MINUTES      HOURS       DAYS        YEARS
                    -----------------------------------------------------------
   TIME STEP LENGTH  86400.      1440.0      24.000      1.0000     2.73785E-03
 STRESS PERIOD TIME 8.38080E+06 1.39680E+05  2328.0      97.000     0.26557    
         TOTAL TIME 8.46720E+06 1.41120E+05  2352.0      98.000     0.26831    
1

 SOLVING FOR HEAD 

 OUTPUT CONTROL FOR STRESS PERIOD    2   TIME STEP   98
    SAVE HEAD FOR ALL LAYERS
    SAVE DRAWDOWN FOR ALL LAYERS
    SAVE BUDGET
    PRINT HEAD FOR ALL LAYERS
    PRINT BUDGET
 UBDSV1 SAVING "         STORAGE" ON UNIT  53 AT TIME STEP 98, STRESS PERIOD   2
 UBDSV2 SAVING "   CONSTANT HEAD" ON UNIT  53 AT TIME STEP 98, STRESS PERIOD   2
 UBDSV1 SAVING "FLOW RIGHT FACE " ON UNIT  53 AT TIME STEP 98, STRESS PERIOD   2
 UBDSV1 SAVING "FLOW FRONT FACE " ON UNIT  53 AT TIME STEP 98, STRESS PERIOD   2
1
              HEAD IN LAYER   1 AT END OF TIME STEP  98 IN STRESS PERIOD    2
  ---------------------------------------------------------------------------

            1           2           3           4           5           6           7           8           9          10
 ........................................................................................................................
   1    9.991       8.882       7.773       6.664       5.555       4.447       3.338       2.229       1.120      1.1089E-02
   2    9.991       8.882       7.773       6.664       5.555       4.447       3.338       2.229       1.120      1.1089E-02
   3    9.991       8.882       7.773       6.664       5.555       4.447       3.338       2.229       1.120      1.1089E-02
   4    9.991       8.882       7.773       6.664       5.555       4.447       3.338       2.229       1.120      1.1089E-02
   5    9.991       8.882       7.773       6.664       5.555       4.447       3.338       2.229       1.120      1.1089E-02
   6    9.991       8.882       7.773       6.664       5.555       4.447       3.338       2.229       1.120      1.1089E-02
   7    9.991       8.882       7.773       6.664       5.555       4.447       3.338       2.229       1.120      1.1089E-02
   8    9.991       8.882       7.773       6.664       5.555       4.447       3.338       2.229       1.120      1.1089E-02
   9    9.991       8.882       7.773       6.664       5.555       4.447       3.338       2.229       1.120      1.1089E-02
  10    9.991       8.882       7.773       6.664       5.555       4.447       3.338       2.229       1.120      1.1089E-02

 HEAD WILL BE SAVED ON UNIT   51 AT END OF TIME STEP   98, STRESS PERIOD    2

 DRAWDOWN WILL BE SAVED ON UNIT   52 AT END OF TIME STEP   98, STRESS PERIOD    2
1
  VOLUMETRIC BUDGET FOR ENTIRE MODEL AT END OF TIME STEP   98, STRESS PERIOD   2
  ------------------------------------------------------------------------------

     CUMULATIVE VOLUMES      L**3       RATES FOR THIS TIME STEP      L**3/T
     ------------------                 ------------------------

           IN:                                      IN:
           ---                                      ---
             STORAGE =       24995.1094               STORAGE =       3.2330E-02
       CONSTANT HEAD =           0.0000         CONSTANT HEAD =           0.0000
               WELLS =           0.0000                 WELLS =           0.0000
     HEAD DEP BOUNDS =       46905.5195       HEAD DEP BOUNDS =         554.3995

            TOTAL IN =       71900.6250              TOTAL IN =         554.4318

          OUT:                                     OUT:
          ----                                     ----
             STORAGE =           0.0000               STORAGE =           0.0000
       CONSTANT HEAD =           0.0000         CONSTANT HEAD =           0.0000
               WELLS =           0.0000                 WELLS =           0.0000
     HEAD DEP BOUNDS =       71900.9375       HEAD DEP BOUNDS =         554.4421

           TOTAL OUT =       71900.9375             TOTAL OUT =         554.4421

            IN - OUT =          -0.3125              IN - OUT =      -1.0315E-02

 PERCENT DISCREPANCY =          -0.00     PERCENT DISCREPANCY =          -0.00






         TIME SUMMARY AT END OF TIME STEP   98 IN STRESS PERIOD    2
                    SECONDS     MINUTES      HOURS       DAYS        YEARS
                    -----------------------------------------------------------
   TIME STEP LENGTH  86400.      1440.0      24.000      1.0000     2.73785E-03
 STRESS PERIOD TIME 8.46720E+06 1.41120E+05  2352.0      98.000     0.26831    
         TOTAL TIME 8.55360E+06 1.42560E+05  2376.0      99.000     0.27105    
1

 SOLVING FOR HEAD 

 OUTPUT CONTROL FOR STRESS PERIOD    2   TIME STEP   99
    SAVE HEAD FOR ALL LAYERS
    SAVE DRAWDOWN FOR ALL LAYERS
    SAVE BUDGET
    PRINT HEAD FOR ALL LAYERS
    PRINT BUDGET
 UBDSV1 SAVING "         STORAGE" ON UNIT  53 AT TIME STEP 99, STRESS PERIOD   2
 UBDSV2 SAVING "   CONSTANT HEAD" ON UNIT  53 AT TIME STEP 99, STRESS PERIOD   2
 UBDSV1 SAVING "FLOW RIGHT FACE " ON UNIT  53 AT TIME STEP 99, STRESS PERIOD   2
 UBDSV1 SAVING "FLOW FRONT FACE " ON UNIT  53 AT TIME STEP 99, STRESS PERIOD   2
1
              HEAD IN LAYER   1 AT END OF TIME STEP  99 IN STRESS PERIOD    2
  ---------------------------------------------------------------------------

            1           2           3           4           5           6           7           8           9          10
 ........................................................................................................................
   1    9.991       8.882       7.773       6.664       5.555       4.447       3.338       2.229       1.120      1.1089E-02
   2    9.991       8.882       7.773       6.664       5.555       4.447       3.338       2.229       1.120      1.1089E-02
   3    9.991       8.882       7.773       6.664       5.555       4.447       3.338       2.229       1.120      1.1089E-02
   4    9.991       8.882       7.773       6.664       5.555       4.447       3.338       2.229       1.120      1.1089E-02
   5    9.991       8.882       7.773       6.664       5.555       4.447       3.338       2.229       1.120      1.1089E-02
   6    9.991       8.882       7.773       6.664       5.555       4.447       3.338       2.229       1.120      1.1089E-02
   7    9.991       8.882       7.773       6.664       5.555       4.447       3.338       2.229       1.120      1.1089E-02
   8    9.991       8.882       7.773       6.664       5.555       4.447       3.338       2.229       1.120      1.1089E-02
   9    9.991       8.882       7.773       6.664       5.555       4.447       3.338       2.229       1.120      1.1089E-02
  10    9.991       8.882       7.773       6.664       5.555       4.447       3.338       2.229       1.120      1.1089E-02

 HEAD WILL BE SAVED ON UNIT   51 AT END OF TIME STEP   99, STRESS PERIOD    2

 DRAWDOWN WILL BE SAVED ON UNIT   52 AT END OF TIME STEP   99, STRESS PERIOD    2
1
  VOLUMETRIC BUDGET FOR ENTIRE MODEL AT END OF TIME STEP   99, STRESS PERIOD   2
  ------------------------------------------------------------------------------

     CUMULATIVE VOLUMES      L**3       RATES FOR THIS TIME STEP      L**3/T
     ------------------                 ------------------------

           IN:                                      IN:
           ---                                      ---
             STORAGE =       24995.1387               STORAGE =       2.8590E-02
       CONSTANT HEAD =           0.0000         CONSTANT HEAD =           0.0000
               WELLS =           0.0000                 WELLS =           0.0000
     HEAD DEP BOUNDS =       47459.9219       HEAD DEP BOUNDS =         554.4013

            TOTAL IN =       72455.0625              TOTAL IN =         554.4299

          OUT:                                     OUT:
          ----                                     ----
             STORAGE =           0.0000               STORAGE =           0.0000
       CONSTANT HEAD =           0.0000         CONSTANT HEAD =           0.0000
               WELLS =           0.0000                 WELLS =           0.0000
     HEAD DEP BOUNDS =       72455.3750       HEAD DEP BOUNDS =         554.4404

           TOTAL OUT =       72455.3750             TOTAL OUT =         554.4404

            IN - OUT =          -0.3125              IN - OUT =      -1.0559E-02

 PERCENT DISCREPANCY =          -0.00     PERCENT DISCREPANCY =          -0.00






         TIME SUMMARY AT END OF TIME STEP   99 IN STRESS PERIOD    2
                    SECONDS     MINUTES      HOURS       DAYS        YEARS
                    -----------------------------------------------------------
   TIME STEP LENGTH  86400.      1440.0      24.000      1.0000     2.73785E-03
 STRESS PERIOD TIME 8.55360E+06 1.42560E+05  2376.0      99.000     0.27105    
         TOTAL TIME 8.64000E+06 1.44000E+05  2400.0      100.00     0.27379    
1

 SOLVING FOR HEAD 

 OUTPUT CONTROL FOR STRESS PERIOD    2   TIME STEP  100
    SAVE HEAD FOR ALL LAYERS
    SAVE DRAWDOWN FOR ALL LAYERS
    SAVE BUDGET
    PRINT HEAD FOR ALL LAYERS
    PRINT BUDGET
 UBDSV1 SAVING "         STORAGE" ON UNIT  53 AT TIME STEP100, STRESS PERIOD   2
 UBDSV2 SAVING "   CONSTANT HEAD" ON UNIT  53 AT TIME STEP100, STRESS PERIOD   2
 UBDSV1 SAVING "FLOW RIGHT FACE " ON UNIT  53 AT TIME STEP100, STRESS PERIOD   2
 UBDSV1 SAVING "FLOW FRONT FACE " ON UNIT  53 AT TIME STEP100, STRESS PERIOD   2
1
              HEAD IN LAYER   1 AT END OF TIME STEP 100 IN STRESS PERIOD    2
  ---------------------------------------------------------------------------

            1           2           3           4           5           6           7           8           9          10
 ........................................................................................................................
   1    9.991       8.882       7.773       6.664       5.555       4.447       3.338       2.229       1.120      1.1089E-02
   2    9.991       8.882       7.773       6.664       5.555       4.447       3.338       2.229       1.120      1.1089E-02
   3    9.991       8.882       7.773       6.664       5.555       4.447       3.338       2.229       1.120      1.1089E-02
   4    9.991       8.882       7.773       6.664       5.555       4.447       3.338       2.229       1.120      1.1089E-02
   5    9.991       8.882       7.773       6.664       5.555       4.447       3.338       2.229       1.120      1.1089E-02
   6    9.991       8.882       7.773       6.664       5.555       4.447       3.338       2.229       1.120      1.1089E-02
   7    9.991       8.882       7.773       6.664       5.555       4.447       3.338       2.229       1.120      1.1089E-02
   8    9.991       8.882       7.773       6.664       5.555       4.447       3.338       2.229       1.120      1.1089E-02
   9    9.991       8.882       7.773       6.664       5.555       4.447       3.338       2.229       1.120      1.1089E-02
  10    9.991       8.882       7.773       6.664       5.555       4.447       3.338       2.229       1.120      1.1089E-02

 HEAD WILL BE SAVED ON UNIT   51 AT END OF TIME STEP  100, STRESS PERIOD    2

 DRAWDOWN WILL BE SAVED ON UNIT   52 AT END OF TIME STEP  100, STRESS PERIOD    2
1
  VOLUMETRIC BUDGET FOR ENTIRE MODEL AT END OF TIME STEP  100, STRESS PERIOD   2
  ------------------------------------------------------------------------------

     CUMULATIVE VOLUMES      L**3       RATES FOR THIS TIME STEP      L**3/T
     ------------------                 ------------------------

           IN:                                      IN:
           ---                                      ---
             STORAGE =       24995.1641               STORAGE =       2.5688E-02
       CONSTANT HEAD =           0.0000         CONSTANT HEAD =           0.0000
               WELLS =           0.0000                 WELLS =           0.0000
     HEAD DEP BOUNDS =       48014.3242       HEAD DEP BOUNDS =         554.4028

            TOTAL IN =       73009.4844              TOTAL IN =         554.4285

          OUT:                                     OUT:
          ----                                     ----
             STORAGE =           0.0000               STORAGE =           0.0000
       CONSTANT HEAD =           0.0000         CONSTANT HEAD =           0.0000
               WELLS =           0.0000                 WELLS =           0.0000
     HEAD DEP BOUNDS =       73009.8125       HEAD DEP BOUNDS =         554.4389

           TOTAL OUT =       73009.8125             TOTAL OUT =         554.4389

            IN - OUT =          -0.3281              IN - OUT =      -1.0376E-02

 PERCENT DISCREPANCY =          -0.00     PERCENT DISCREPANCY =          -0.00






         TIME SUMMARY AT END OF TIME STEP  100 IN STRESS PERIOD    2
                    SECONDS     MINUTES      HOURS       DAYS        YEARS
                    -----------------------------------------------------------
   TIME STEP LENGTH  86400.      1440.0      24.000      1.0000     2.73785E-03
 STRESS PERIOD TIME 8.64000E+06 1.44000E+05  2400.0      100.00     0.27379    
         TOTAL TIME 8.72640E+06 1.45440E+05  2424.0      101.00     0.27652    
1
1
                            STRESS PERIOD NO.    3, LENGTH =   100.0000    
                            -----------------------------------------------

                              NUMBER OF TIME STEPS =   100

                               MULTIPLIER FOR DELT =     1.000

                            INITIAL TIME STEP SIZE =   1.000000    

 WELL NO.  LAYER   ROW   COL   STRESS RATE         
 --------------------------------------------------
      1      1      5      5      -100.0    

      1 WELL 

 REUSING NON-PARAMETER GHB CELLS FROM LAST STRESS PERIOD

     20 GHB CELLS

 SOLVING FOR HEAD 

 OUTPUT CONTROL FOR STRESS PERIOD    3   TIME STEP    1
    SAVE HEAD FOR ALL LAYERS
    SAVE DRAWDOWN FOR ALL LAYERS
    SAVE BUDGET
    PRINT HEAD FOR ALL LAYERS
    PRINT BUDGET
 UBDSV1 SAVING "         STORAGE" ON UNIT  53 AT TIME STEP  1, STRESS PERIOD   3
 UBDSV2 SAVING "   CONSTANT HEAD" ON UNIT  53 AT TIME STEP  1, STRESS PERIOD   3
 UBDSV1 SAVING "FLOW RIGHT FACE " ON UNIT  53 AT TIME STEP  1, STRESS PERIOD   3
 UBDSV1 SAVING "FLOW FRONT FACE " ON UNIT  53 AT TIME STEP  1, STRESS PERIOD   3
1
              HEAD IN LAYER   1 AT END OF TIME STEP   1 IN STRESS PERIOD    3
  ---------------------------------------------------------------------------

            1           2           3           4           5           6           7           8           9          10
 ........................................................................................................................
   1    9.991       8.881       7.770       6.660       5.550       4.442       3.335       2.227       1.119      1.1082E-02
   2    9.991       8.880       7.768       6.655       5.543       4.437       3.332       2.226       1.119      1.1079E-02
   3    9.991       8.878       7.761       6.639       5.516       4.422       3.326       2.224       1.118      1.1071E-02
   4    9.991       8.874       7.749       6.600       5.420       4.383       3.313       2.220       1.117      1.1060E-02
   5    9.991       8.871       7.734       6.529       5.047       4.311       3.298       2.217       1.116      1.1054E-02
   6    9.991       8.874       7.749       6.600       5.420       4.383       3.313       2.220       1.117      1.1061E-02
   7    9.991       8.878       7.761       6.639       5.516       4.422       3.326       2.224       1.118      1.1071E-02
   8    9.991       8.880       7.768       6.655       5.543       4.437       3.333       2.226       1.119      1.1079E-02
   9    9.991       8.881       7.771       6.661       5.551       4.443       3.336       2.228       1.119      1.1084E-02
  10    9.991       8.881       7.772       6.663       5.554       4.445       3.337       2.228       1.120      1.1086E-02

 HEAD WILL BE SAVED ON UNIT   51 AT END OF TIME STEP    1, STRESS PERIOD    3

 DRAWDOWN WILL BE SAVED ON UNIT   52 AT END OF TIME STEP    1, STRESS PERIOD    3
1
  VOLUMETRIC BUDGET FOR ENTIRE MODEL AT END OF TIME STEP    1, STRESS PERIOD   3
  ------------------------------------------------------------------------------

     CUMULATIVE VOLUMES      L**3       RATES FOR THIS TIME STEP      L**3/T
     ------------------                 ------------------------

           IN:                                      IN:
           ---                                      ---
             STORAGE =       25092.2871               STORAGE =          97.1228
       CONSTANT HEAD =           0.0000         CONSTANT HEAD =           0.0000
               WELLS =           0.0000                 WELLS =           0.0000
     HEAD DEP BOUNDS =       48570.8281       HEAD DEP BOUNDS =         556.5043

            TOTAL IN =       73663.1172              TOTAL IN =         653.6271

          OUT:                                     OUT:
          ----                                     ----
             STORAGE =           0.0000               STORAGE =           0.0000
       CONSTANT HEAD =           0.0000         CONSTANT HEAD =           0.0000
               WELLS =         100.0000                 WELLS =         100.0000
     HEAD DEP BOUNDS =       73563.4531       HEAD DEP BOUNDS =         553.6378

           TOTAL OUT =       73663.4531             TOTAL OUT =         653.6378

            IN - OUT =          -0.3359              IN - OUT =      -1.0620E-02

 PERCENT DISCREPANCY =          -0.00     PERCENT DISCREPANCY =          -0.00






         TIME SUMMARY AT END OF TIME STEP    1 IN STRESS PERIOD    3
                    SECONDS     MINUTES      HOURS       DAYS        YEARS
                    -----------------------------------------------------------
   TIME STEP LENGTH  86400.      1440.0      24.000      1.0000     2.73785E-03
 STRESS PERIOD TIME  86400.      1440.0      24.000      1.0000     2.73785E-03
         TOTAL TIME 8.81280E+06 1.46880E+05  2448.0      102.00     0.27926    
1

 SOLVING FOR HEAD 

 OUTPUT CONTROL FOR STRESS PERIOD    3   TIME STEP    2
    SAVE HEAD FOR ALL LAYERS
    SAVE DRAWDOWN FOR ALL LAYERS
    SAVE BUDGET
    PRINT HEAD FOR ALL LAYERS
    PRINT BUDGET
 UBDSV1 SAVING "         STORAGE" ON UNIT  53 AT TIME STEP  2, STRESS PERIOD   3
 UBDSV2 SAVING "   CONSTANT HEAD" ON UNIT  53 AT TIME STEP  2, STRESS PERIOD   3
 UBDSV1 SAVING "FLOW RIGHT FACE " ON UNIT  53 AT TIME STEP  2, STRESS PERIOD   3
 UBDSV1 SAVING "FLOW FRONT FACE " ON UNIT  53 AT TIME STEP  2, STRESS PERIOD   3
1
              HEAD IN LAYER   1 AT END OF TIME STEP   2 IN STRESS PERIOD    3
  ---------------------------------------------------------------------------

            1           2           3           4           5           6           7           8           9          10
 ........................................................................................................................
   1    9.991       8.877       7.764       6.650       5.538       4.432       3.328       2.223       1.117      1.1064E-02
   2    9.991       8.875       7.757       6.638       5.522       4.420       3.321       2.220       1.116      1.1052E-02
   3    9.991       8.869       7.741       6.605       5.470       4.386       3.305       2.213       1.114      1.1030E-02
   4    9.991       8.861       7.715       6.535       5.322       4.316       3.278       2.204       1.111      1.1001E-02
   5    9.991       8.855       7.690       6.431       4.867       4.213       3.253       2.197       1.109      1.0985E-02
   6    9.991       8.861       7.715       6.535       5.322       4.317       3.278       2.204       1.111      1.1002E-02
   7    9.991       8.869       7.742       6.605       5.471       4.387       3.305       2.214       1.114      1.1031E-02
   8    9.991       8.875       7.758       6.639       5.523       4.421       3.322       2.221       1.117      1.1055E-02
   9    9.991       8.879       7.766       6.653       5.542       4.435       3.330       2.225       1.118      1.1070E-02
  10    9.991       8.880       7.769       6.658       5.549       4.441       3.333       2.226       1.119      1.1077E-02

 HEAD WILL BE SAVED ON UNIT   51 AT END OF TIME STEP    2, STRESS PERIOD    3

 DRAWDOWN WILL BE SAVED ON UNIT   52 AT END OF TIME STEP    2, STRESS PERIOD    3
1
  VOLUMETRIC BUDGET FOR ENTIRE MODEL AT END OF TIME STEP    2, STRESS PERIOD   3
  ------------------------------------------------------------------------------

     CUMULATIVE VOLUMES      L**3       RATES FOR THIS TIME STEP      L**3/T
     ------------------                 ------------------------

           IN:                                      IN:
           ---                                      ---
             STORAGE =       25183.8340               STORAGE =          91.5475
       CONSTANT HEAD =           0.0000         CONSTANT HEAD =           0.0000
               WELLS =           0.0000                 WELLS =           0.0000
     HEAD DEP BOUNDS =       49131.1172       HEAD DEP BOUNDS =         560.2879

            TOTAL IN =       74314.9531              TOTAL IN =         651.8354

          OUT:                                     OUT:
          ----                                     ----
             STORAGE =           0.0000               STORAGE =           0.0000
       CONSTANT HEAD =           0.0000         CONSTANT HEAD =           0.0000
               WELLS =         200.0000                 WELLS =         100.0000
     HEAD DEP BOUNDS =       74115.2969       HEAD DEP BOUNDS =         551.8403

           TOTAL OUT =       74315.2969             TOTAL OUT =         651.8403

            IN - OUT =          -0.3438              IN - OUT =      -4.8218E-03

 PERCENT DISCREPANCY =          -0.00     PERCENT DISCREPANCY =          -0.00






         TIME SUMMARY AT END OF TIME STEP    2 IN STRESS PERIOD    3
                    SECONDS     MINUTES      HOURS       DAYS        YEARS
                    -----------------------------------------------------------
   TIME STEP LENGTH  86400.      1440.0      24.000      1.0000     2.73785E-03
 STRESS PERIOD TIME 1.72800E+05  2880.0      48.000      2.0000     5.47570E-03
         TOTAL TIME 8.89920E+06 1.48320E+05  2472.0      103.00     0.28200    
1

 SOLVING FOR HEAD 

 OUTPUT CONTROL FOR STRESS PERIOD    3   TIME STEP    3
    SAVE HEAD FOR ALL LAYERS
    SAVE DRAWDOWN FOR ALL LAYERS
    SAVE BUDGET
    PRINT HEAD FOR ALL LAYERS
    PRINT BUDGET
 UBDSV1 SAVING "         STORAGE" ON UNIT  53 AT TIME STEP  3, STRESS PERIOD   3
 UBDSV2 SAVING "   CONSTANT HEAD" ON UNIT  53 AT TIME STEP  3, STRESS PERIOD   3
 UBDSV1 SAVING "FLOW RIGHT FACE " ON UNIT  53 AT TIME STEP  3, STRESS PERIOD   3
 UBDSV1 SAVING "FLOW FRONT FACE " ON UNIT  53 AT TIME STEP  3, STRESS PERIOD   3
1
              HEAD IN LAYER   1 AT END OF TIME STEP   3 IN STRESS PERIOD    3
  ---------------------------------------------------------------------------

            1           2           3           4           5           6           7           8           9          10
 ........................................................................................................................
   1    9.991       8.872       7.754       6.636       5.522       4.417       3.317       2.216       1.114      1.1031E-02
   2    9.991       8.868       7.743       6.617       5.497       4.398       3.305       2.211       1.112      1.1010E-02
   3    9.991       8.858       7.719       6.570       5.429       4.351       3.281       2.200       1.108      1.0970E-02
   4    9.990       8.846       7.683       6.481       5.254       4.262       3.244       2.185       1.103      1.0924E-02
   5    9.990       8.838       7.652       6.365       4.777       4.146       3.213       2.176       1.101      1.0899E-02
   6    9.990       8.846       7.683       6.482       5.255       4.263       3.244       2.186       1.103      1.0925E-02
   7    9.991       8.859       7.720       6.571       5.430       4.353       3.282       2.200       1.108      1.0974E-02
   8    9.991       8.869       7.745       6.620       5.501       4.401       3.308       2.212       1.113      1.1018E-02
   9    9.991       8.875       7.759       6.643       5.530       4.425       3.322       2.219       1.116      1.1046E-02
  10    9.991       8.877       7.764       6.652       5.541       4.434       3.328       2.223       1.117      1.1060E-02

 HEAD WILL BE SAVED ON UNIT   51 AT END OF TIME STEP    3, STRESS PERIOD    3

 DRAWDOWN WILL BE SAVED ON UNIT   52 AT END OF TIME STEP    3, STRESS PERIOD    3
1
  VOLUMETRIC BUDGET FOR ENTIRE MODEL AT END OF TIME STEP    3, STRESS PERIOD   3
  ------------------------------------------------------------------------------

     CUMULATIVE VOLUMES      L**3       RATES FOR THIS TIME STEP      L**3/T
     ------------------                 ------------------------

           IN:                                      IN:
           ---                                      ---
             STORAGE =       25268.3047               STORAGE =          84.4714
       CONSTANT HEAD =           0.0000         CONSTANT HEAD =           0.0000
               WELLS =           0.0000                 WELLS =           0.0000
     HEAD DEP BOUNDS =       49695.9414       HEAD DEP BOUNDS =         564.8230

            TOTAL IN =       74964.2500              TOTAL IN =         649.2944

          OUT:                                     OUT:
          ----                                     ----
             STORAGE =           0.0000               STORAGE =           0.0000
       CONSTANT HEAD =           0.0000         CONSTANT HEAD =           0.0000
               WELLS =         300.0000                 WELLS =         100.0000
     HEAD DEP BOUNDS =       74664.5859       HEAD DEP BOUNDS =         549.2874

           TOTAL OUT =       74964.5859             TOTAL OUT =         649.2874

            IN - OUT =          -0.3359              IN - OUT =       6.9580E-03

 PERCENT DISCREPANCY =          -0.00     PERCENT DISCREPANCY =           0.00






         TIME SUMMARY AT END OF TIME STEP    3 IN STRESS PERIOD    3
                    SECONDS     MINUTES      HOURS       DAYS        YEARS
                    -----------------------------------------------------------
   TIME STEP LENGTH  86400.      1440.0      24.000      1.0000     2.73785E-03
 STRESS PERIOD TIME 2.59200E+05  4320.0      72.000      3.0000     8.21355E-03
         TOTAL TIME 8.98560E+06 1.49760E+05  2496.0      104.00     0.28474    
1

 SOLVING FOR HEAD 

 OUTPUT CONTROL FOR STRESS PERIOD    3   TIME STEP    4
    SAVE HEAD FOR ALL LAYERS
    SAVE DRAWDOWN FOR ALL LAYERS
    SAVE BUDGET
    PRINT HEAD FOR ALL LAYERS
    PRINT BUDGET
 UBDSV1 SAVING "         STORAGE" ON UNIT  53 AT TIME STEP  4, STRESS PERIOD   3
 UBDSV2 SAVING "   CONSTANT HEAD" ON UNIT  53 AT TIME STEP  4, STRESS PERIOD   3
 UBDSV1 SAVING "FLOW RIGHT FACE " ON UNIT  53 AT TIME STEP  4, STRESS PERIOD   3
 UBDSV1 SAVING "FLOW FRONT FACE " ON UNIT  53 AT TIME STEP  4, STRESS PERIOD   3
1
              HEAD IN LAYER   1 AT END OF TIME STEP   4 IN STRESS PERIOD    3
  ---------------------------------------------------------------------------

            1           2           3           4           5           6           7           8           9          10
 ........................................................................................................................
   1    9.991       8.866       7.741       6.619       5.503       4.400       3.303       2.207       1.110      1.0987E-02
   2    9.991       8.860       7.727       6.595       5.473       4.376       3.288       2.199       1.107      1.0957E-02
   3    9.990       8.848       7.697       6.539       5.393       4.319       3.257       2.185       1.101      1.0902E-02
   4    9.990       8.832       7.654       6.439       5.205       4.219       3.213       2.167       1.095      1.0839E-02
   5    9.990       8.823       7.620       6.317       4.721       4.097       3.179       2.156       1.091      1.0808E-02
   6    9.990       8.833       7.655       6.440       5.206       4.220       3.214       2.167       1.095      1.0842E-02
   7    9.990       8.849       7.699       6.541       5.396       4.322       3.259       2.186       1.102      1.0908E-02
   8    9.991       8.862       7.731       6.600       5.479       4.381       3.293       2.202       1.108      1.0971E-02
   9    9.991       8.870       7.750       6.630       5.516       4.412       3.312       2.213       1.112      1.1014E-02
  10    9.991       8.874       7.758       6.643       5.531       4.424       3.320       2.218       1.115      1.1035E-02

 HEAD WILL BE SAVED ON UNIT   51 AT END OF TIME STEP    4, STRESS PERIOD    3

 DRAWDOWN WILL BE SAVED ON UNIT   52 AT END OF TIME STEP    4, STRESS PERIOD    3
1
  VOLUMETRIC BUDGET FOR ENTIRE MODEL AT END OF TIME STEP    4, STRESS PERIOD   3
  ------------------------------------------------------------------------------

     CUMULATIVE VOLUMES      L**3       RATES FOR THIS TIME STEP      L**3/T
     ------------------                 ------------------------

           IN:                                      IN:
           ---                                      ---
             STORAGE =       25345.1934               STORAGE =          76.8888
       CONSTANT HEAD =           0.0000         CONSTANT HEAD =           0.0000
               WELLS =           0.0000                 WELLS =           0.0000
     HEAD DEP BOUNDS =       50265.3750       HEAD DEP BOUNDS =         569.4326

            TOTAL IN =       75610.5703              TOTAL IN =         646.3214

          OUT:                                     OUT:
          ----                                     ----
             STORAGE =           0.0000               STORAGE =           0.0000
       CONSTANT HEAD =           0.0000         CONSTANT HEAD =           0.0000
               WELLS =         400.0000                 WELLS =         100.0000
     HEAD DEP BOUNDS =       75210.9062       HEAD DEP BOUNDS =         546.3172

           TOTAL OUT =       75610.9062             TOTAL OUT =         646.3172

            IN - OUT =          -0.3359              IN - OUT =       4.2114E-03

 PERCENT DISCREPANCY =          -0.00     PERCENT DISCREPANCY =           0.00






         TIME SUMMARY AT END OF TIME STEP    4 IN STRESS PERIOD    3
                    SECONDS     MINUTES      HOURS       DAYS        YEARS
                    -----------------------------------------------------------
   TIME STEP LENGTH  86400.      1440.0      24.000      1.0000     2.73785E-03
 STRESS PERIOD TIME 3.45600E+05  5760.0      96.000      4.0000     1.09514E-02
         TOTAL TIME 9.07200E+06 1.51200E+05  2520.0      105.00     0.28747    
1

 SOLVING FOR HEAD 

 OUTPUT CONTROL FOR STRESS PERIOD    3   TIME STEP    5
    SAVE HEAD FOR ALL LAYERS
    SAVE DRAWDOWN FOR ALL LAYERS
    SAVE BUDGET
    PRINT HEAD FOR ALL LAYERS
    PRINT BUDGET
 UBDSV1 SAVING "         STORAGE" ON UNIT  53 AT TIME STEP  5, STRESS PERIOD   3
 UBDSV2 SAVING "   CONSTANT HEAD" ON UNIT  53 AT TIME STEP  5, STRESS PERIOD   3
 UBDSV1 SAVING "FLOW RIGHT FACE " ON UNIT  53 AT TIME STEP  5, STRESS PERIOD   3
 UBDSV1 SAVING "FLOW FRONT FACE " ON UNIT  53 AT TIME STEP  5, STRESS PERIOD   3
1
              HEAD IN LAYER   1 AT END OF TIME STEP   5 IN STRESS PERIOD    3
  ---------------------------------------------------------------------------

            1           2           3           4           5           6           7           8           9          10
 ........................................................................................................................
   1    9.991       8.859       7.728       6.601       5.484       4.381       3.288       2.197       1.105      1.0936E-02
   2    9.991       8.852       7.712       6.574       5.449       4.354       3.270       2.187       1.101      1.0898E-02
   3    9.990       8.838       7.678       6.512       5.363       4.291       3.235       2.170       1.094      1.0830E-02
   4    9.990       8.820       7.631       6.406       5.168       4.185       3.187       2.150       1.086      1.0756E-02
   5    9.990       8.810       7.595       6.281       4.680       4.060       3.150       2.138       1.083      1.0720E-02
   6    9.990       8.821       7.632       6.408       5.169       4.186       3.188       2.150       1.087      1.0761E-02
   7    9.990       8.839       7.681       6.516       5.367       4.295       3.238       2.172       1.095      1.0841E-02
   8    9.991       8.855       7.718       6.582       5.458       4.362       3.277       2.192       1.103      1.0920E-02
   9    9.991       8.865       7.740       6.617       5.502       4.398       3.301       2.205       1.109      1.0976E-02
  10    9.991       8.870       7.750       6.632       5.520       4.413       3.311       2.211       1.111      1.1003E-02

 HEAD WILL BE SAVED ON UNIT   51 AT END OF TIME STEP    5, STRESS PERIOD    3

 DRAWDOWN WILL BE SAVED ON UNIT   52 AT END OF TIME STEP    5, STRESS PERIOD    3
1
  VOLUMETRIC BUDGET FOR ENTIRE MODEL AT END OF TIME STEP    5, STRESS PERIOD   3
  ------------------------------------------------------------------------------

     CUMULATIVE VOLUMES      L**3       RATES FOR THIS TIME STEP      L**3/T
     ------------------                 ------------------------

           IN:                                      IN:
           ---                                      ---
             STORAGE =       25414.6094               STORAGE =          69.4154
       CONSTANT HEAD =           0.0000         CONSTANT HEAD =           0.0000
               WELLS =           0.0000                 WELLS =           0.0000
     HEAD DEP BOUNDS =       50839.1719       HEAD DEP BOUNDS =         573.7950

            TOTAL IN =       76253.7812              TOTAL IN =         643.2104

          OUT:                                     OUT:
          ----                                     ----
             STORAGE =           0.0000               STORAGE =           0.0000
       CONSTANT HEAD =           0.0000         CONSTANT HEAD =           0.0000
               WELLS =         500.0000                 WELLS =         100.0000
     HEAD DEP BOUNDS =       75754.1094       HEAD DEP BOUNDS =         543.2056

           TOTAL OUT =       76254.1094             TOTAL OUT =         643.2056

            IN - OUT =          -0.3281              IN - OUT =       4.7607E-03

 PERCENT DISCREPANCY =          -0.00     PERCENT DISCREPANCY =           0.00






         TIME SUMMARY AT END OF TIME STEP    5 IN STRESS PERIOD    3
                    SECONDS     MINUTES      HOURS       DAYS        YEARS
                    -----------------------------------------------------------
   TIME STEP LENGTH  86400.      1440.0      24.000      1.0000     2.73785E-03
 STRESS PERIOD TIME 4.32000E+05  7200.0      120.00      5.0000     1.36893E-02
         TOTAL TIME 9.15840E+06 1.52640E+05  2544.0      106.00     0.29021    
1

 SOLVING FOR HEAD 

 OUTPUT CONTROL FOR STRESS PERIOD    3   TIME STEP    6
    SAVE HEAD FOR ALL LAYERS
    SAVE DRAWDOWN FOR ALL LAYERS
    SAVE BUDGET
    PRINT HEAD FOR ALL LAYERS
    PRINT BUDGET
 UBDSV1 SAVING "         STORAGE" ON UNIT  53 AT TIME STEP  6, STRESS PERIOD   3
 UBDSV2 SAVING "   CONSTANT HEAD" ON UNIT  53 AT TIME STEP  6, STRESS PERIOD   3
 UBDSV1 SAVING "FLOW RIGHT FACE " ON UNIT  53 AT TIME STEP  6, STRESS PERIOD   3
 UBDSV1 SAVING "FLOW FRONT FACE " ON UNIT  53 AT TIME STEP  6, STRESS PERIOD   3
1
              HEAD IN LAYER   1 AT END OF TIME STEP   6 IN STRESS PERIOD    3
  ---------------------------------------------------------------------------

            1           2           3           4           5           6           7           8           9          10
 ........................................................................................................................
   1    9.991       8.852       7.715       6.584       5.464       4.363       3.272       2.186       1.099      1.0881E-02
   2    9.990       8.844       7.697       6.554       5.427       4.333       3.253       2.175       1.095      1.0837E-02
   3    9.990       8.828       7.661       6.488       5.336       4.266       3.215       2.156       1.087      1.0760E-02
   4    9.990       8.810       7.611       6.379       5.137       4.156       3.164       2.134       1.078      1.0678E-02
   5    9.990       8.799       7.574       6.253       4.648       4.030       3.126       2.121       1.074      1.0639E-02
   6    9.990       8.810       7.612       6.381       5.140       4.159       3.165       2.135       1.079      1.0685E-02
   7    9.990       8.830       7.664       6.494       5.342       4.272       3.219       2.159       1.088      1.0776E-02
   8    9.990       8.848       7.705       6.565       5.439       4.344       3.262       2.182       1.098      1.0868E-02
   9    9.991       8.860       7.730       6.604       5.487       4.384       3.289       2.197       1.104      1.0934E-02
  10    9.991       8.866       7.742       6.622       5.508       4.402       3.302       2.204       1.108      1.0968E-02

 HEAD WILL BE SAVED ON UNIT   51 AT END OF TIME STEP    6, STRESS PERIOD    3

 DRAWDOWN WILL BE SAVED ON UNIT   52 AT END OF TIME STEP    6, STRESS PERIOD    3
1
  VOLUMETRIC BUDGET FOR ENTIRE MODEL AT END OF TIME STEP    6, STRESS PERIOD   3
  ------------------------------------------------------------------------------

     CUMULATIVE VOLUMES      L**3       RATES FOR THIS TIME STEP      L**3/T
     ------------------                 ------------------------

           IN:                                      IN:
           ---                                      ---
             STORAGE =       25476.9766               STORAGE =          62.3677
       CONSTANT HEAD =           0.0000         CONSTANT HEAD =           0.0000
               WELLS =           0.0000                 WELLS =           0.0000
     HEAD DEP BOUNDS =       51416.9414       HEAD DEP BOUNDS =         577.7712

            TOTAL IN =       76893.9219              TOTAL IN =         640.1389

          OUT:                                     OUT:
          ----                                     ----
             STORAGE =           0.0000               STORAGE =           0.0000
       CONSTANT HEAD =           0.0000         CONSTANT HEAD =           0.0000
               WELLS =         600.0000                 WELLS =         100.0000
     HEAD DEP BOUNDS =       76294.2422       HEAD DEP BOUNDS =         540.1354

           TOTAL OUT =       76894.2422             TOTAL OUT =         640.1354

            IN - OUT =          -0.3203              IN - OUT =       3.4790E-03

 PERCENT DISCREPANCY =          -0.00     PERCENT DISCREPANCY =           0.00






         TIME SUMMARY AT END OF TIME STEP    6 IN STRESS PERIOD    3
                    SECONDS     MINUTES      HOURS       DAYS        YEARS
                    -----------------------------------------------------------
   TIME STEP LENGTH  86400.      1440.0      24.000      1.0000     2.73785E-03
 STRESS PERIOD TIME 5.18400E+05  8640.0      144.00      6.0000     1.64271E-02
         TOTAL TIME 9.24480E+06 1.54080E+05  2568.0      107.00     0.29295    
1

 SOLVING FOR HEAD 

 OUTPUT CONTROL FOR STRESS PERIOD    3   TIME STEP    7
    SAVE HEAD FOR ALL LAYERS
    SAVE DRAWDOWN FOR ALL LAYERS
    SAVE BUDGET
    PRINT HEAD FOR ALL LAYERS
    PRINT BUDGET
 UBDSV1 SAVING "         STORAGE" ON UNIT  53 AT TIME STEP  7, STRESS PERIOD   3
 UBDSV2 SAVING "   CONSTANT HEAD" ON UNIT  53 AT TIME STEP  7, STRESS PERIOD   3
 UBDSV1 SAVING "FLOW RIGHT FACE " ON UNIT  53 AT TIME STEP  7, STRESS PERIOD   3
 UBDSV1 SAVING "FLOW FRONT FACE " ON UNIT  53 AT TIME STEP  7, STRESS PERIOD   3
1
              HEAD IN LAYER   1 AT END OF TIME STEP   7 IN STRESS PERIOD    3
  ---------------------------------------------------------------------------

            1           2           3           4           5           6           7           8           9          10
 ........................................................................................................................
   1    9.990       8.846       7.703       6.567       5.446       4.345       3.257       2.175       1.093      1.0825E-02
   2    9.990       8.837       7.684       6.536       5.407       4.313       3.237       2.164       1.089      1.0778E-02
   3    9.990       8.820       7.645       6.468       5.314       4.244       3.197       2.143       1.080      1.0695E-02
   4    9.990       8.801       7.594       6.357       5.112       4.132       3.144       2.120       1.071      1.0607E-02
   5    9.990       8.790       7.557       6.229       4.622       4.005       3.106       2.107       1.067      1.0567E-02
   6    9.990       8.802       7.596       6.359       5.116       4.135       3.146       2.122       1.072      1.0616E-02
   7    9.990       8.823       7.650       6.475       5.321       4.252       3.203       2.148       1.082      1.0716E-02
   8    9.990       8.842       7.694       6.549       5.422       4.327       3.248       2.172       1.092      1.0817E-02
   9    9.991       8.855       7.721       6.592       5.473       4.370       3.278       2.189       1.100      1.0892E-02
  10    9.991       8.861       7.734       6.611       5.495       4.390       3.292       2.197       1.104      1.0931E-02

 HEAD WILL BE SAVED ON UNIT   51 AT END OF TIME STEP    7, STRESS PERIOD    3

 DRAWDOWN WILL BE SAVED ON UNIT   52 AT END OF TIME STEP    7, STRESS PERIOD    3
1
  VOLUMETRIC BUDGET FOR ENTIRE MODEL AT END OF TIME STEP    7, STRESS PERIOD   3
  ------------------------------------------------------------------------------

     CUMULATIVE VOLUMES      L**3       RATES FOR THIS TIME STEP      L**3/T
     ------------------                 ------------------------

           IN:                                      IN:
           ---                                      ---
             STORAGE =       25532.8574               STORAGE =          55.8810
       CONSTANT HEAD =           0.0000         CONSTANT HEAD =           0.0000
               WELLS =           0.0000                 WELLS =           0.0000
     HEAD DEP BOUNDS =       51998.2734       HEAD DEP BOUNDS =         581.3329

            TOTAL IN =       77531.1328              TOTAL IN =         637.2139

          OUT:                                     OUT:
          ----                                     ----
             STORAGE =           0.0000               STORAGE =           0.0000
       CONSTANT HEAD =           0.0000         CONSTANT HEAD =           0.0000
               WELLS =         700.0000                 WELLS =         100.0000
     HEAD DEP BOUNDS =       76831.4531       HEAD DEP BOUNDS =         537.2123

           TOTAL OUT =       77531.4531             TOTAL OUT =         637.2123

            IN - OUT =          -0.3203              IN - OUT =       1.6479E-03

 PERCENT DISCREPANCY =          -0.00     PERCENT DISCREPANCY =           0.00






         TIME SUMMARY AT END OF TIME STEP    7 IN STRESS PERIOD    3
                    SECONDS     MINUTES      HOURS       DAYS        YEARS
                    -----------------------------------------------------------
   TIME STEP LENGTH  86400.      1440.0      24.000      1.0000     2.73785E-03
 STRESS PERIOD TIME 6.04800E+05  10080.      168.00      7.0000     1.91650E-02
         TOTAL TIME 9.33120E+06 1.55520E+05  2592.0      108.00     0.29569    
1

 SOLVING FOR HEAD 

 OUTPUT CONTROL FOR STRESS PERIOD    3   TIME STEP    8
    SAVE HEAD FOR ALL LAYERS
    SAVE DRAWDOWN FOR ALL LAYERS
    SAVE BUDGET
    PRINT HEAD FOR ALL LAYERS
    PRINT BUDGET
 UBDSV1 SAVING "         STORAGE" ON UNIT  53 AT TIME STEP  8, STRESS PERIOD   3
 UBDSV2 SAVING "   CONSTANT HEAD" ON UNIT  53 AT TIME STEP  8, STRESS PERIOD   3
 UBDSV1 SAVING "FLOW RIGHT FACE " ON UNIT  53 AT TIME STEP  8, STRESS PERIOD   3
 UBDSV1 SAVING "FLOW FRONT FACE " ON UNIT  53 AT TIME STEP  8, STRESS PERIOD   3
1
              HEAD IN LAYER   1 AT END OF TIME STEP   8 IN STRESS PERIOD    3
  ---------------------------------------------------------------------------

            1           2           3           4           5           6           7           8           9          10
 ........................................................................................................................
   1    9.990       8.839       7.691       6.552       5.429       4.328       3.243       2.165       1.088      1.0771E-02
   2    9.990       8.830       7.671       6.520       5.389       4.295       3.222       2.153       1.083      1.0721E-02
   3    9.990       8.813       7.632       6.450       5.294       4.225       3.180       2.132       1.074      1.0634E-02
   4    9.990       8.793       7.580       6.338       5.091       4.112       3.126       2.107       1.065      1.0543E-02
   5    9.990       8.782       7.542       6.210       4.601       3.984       3.088       2.095       1.061      1.0502E-02
   6    9.990       8.795       7.582       6.341       5.095       4.116       3.129       2.110       1.066      1.0555E-02
   7    9.990       8.816       7.638       6.459       5.303       4.234       3.188       2.137       1.077      1.0660E-02
   8    9.990       8.836       7.683       6.535       5.407       4.312       3.235       2.162       1.088      1.0769E-02
   9    9.990       8.850       7.712       6.580       5.460       4.357       3.267       2.181       1.096      1.0850E-02
  10    9.991       8.857       7.726       6.600       5.483       4.378       3.281       2.190       1.100      1.0893E-02

 HEAD WILL BE SAVED ON UNIT   51 AT END OF TIME STEP    8, STRESS PERIOD    3

 DRAWDOWN WILL BE SAVED ON UNIT   52 AT END OF TIME STEP    8, STRESS PERIOD    3
1
  VOLUMETRIC BUDGET FOR ENTIRE MODEL AT END OF TIME STEP    8, STRESS PERIOD   3
  ------------------------------------------------------------------------------

     CUMULATIVE VOLUMES      L**3       RATES FOR THIS TIME STEP      L**3/T
     ------------------                 ------------------------

           IN:                                      IN:
           ---                                      ---
             STORAGE =       25582.8477               STORAGE =          49.9898
       CONSTANT HEAD =           0.0000         CONSTANT HEAD =           0.0000
               WELLS =           0.0000                 WELLS =           0.0000
     HEAD DEP BOUNDS =       52582.7734       HEAD DEP BOUNDS =         584.4988

            TOTAL IN =       78165.6250              TOTAL IN =         634.4887

          OUT:                                     OUT:
          ----                                     ----
             STORAGE =           0.0000               STORAGE =           0.0000
       CONSTANT HEAD =           0.0000         CONSTANT HEAD =           0.0000
               WELLS =         800.0000                 WELLS =         100.0000
     HEAD DEP BOUNDS =       77365.9453       HEAD DEP BOUNDS =         534.4894

           TOTAL OUT =       78165.9453             TOTAL OUT =         634.4894

            IN - OUT =          -0.3203              IN - OUT =      -6.7139E-04

 PERCENT DISCREPANCY =          -0.00     PERCENT DISCREPANCY =          -0.00






         TIME SUMMARY AT END OF TIME STEP    8 IN STRESS PERIOD    3
                    SECONDS     MINUTES      HOURS       DAYS        YEARS
                    -----------------------------------------------------------
   TIME STEP LENGTH  86400.      1440.0      24.000      1.0000     2.73785E-03
 STRESS PERIOD TIME 6.91200E+05  11520.      192.00      8.0000     2.19028E-02
         TOTAL TIME 9.41760E+06 1.56960E+05  2616.0      109.00     0.29843    
1

 SOLVING FOR HEAD 

 OUTPUT CONTROL FOR STRESS PERIOD    3   TIME STEP    9
    SAVE HEAD FOR ALL LAYERS
    SAVE DRAWDOWN FOR ALL LAYERS
    SAVE BUDGET
    PRINT HEAD FOR ALL LAYERS
    PRINT BUDGET
 UBDSV1 SAVING "         STORAGE" ON UNIT  53 AT TIME STEP  9, STRESS PERIOD   3
 UBDSV2 SAVING "   CONSTANT HEAD" ON UNIT  53 AT TIME STEP  9, STRESS PERIOD   3
 UBDSV1 SAVING "FLOW RIGHT FACE " ON UNIT  53 AT TIME STEP  9, STRESS PERIOD   3
 UBDSV1 SAVING "FLOW FRONT FACE " ON UNIT  53 AT TIME STEP  9, STRESS PERIOD   3
1
              HEAD IN LAYER   1 AT END OF TIME STEP   9 IN STRESS PERIOD    3
  ---------------------------------------------------------------------------

            1           2           3           4           5           6           7           8           9          10
 ........................................................................................................................
   1    9.990       8.834       7.681       6.538       5.413       4.312       3.229       2.155       1.083      1.0720E-02
   2    9.990       8.824       7.660       6.505       5.372       4.279       3.208       2.143       1.077      1.0668E-02
   3    9.990       8.807       7.620       6.435       5.276       4.208       3.166       2.121       1.068      1.0578E-02
   4    9.990       8.787       7.568       6.321       5.073       4.094       3.111       2.096       1.059      1.0486E-02
   5    9.990       8.775       7.530       6.194       4.582       3.966       3.073       2.083       1.055      1.0445E-02
   6    9.990       8.788       7.571       6.326       5.078       4.099       3.115       2.099       1.060      1.0500E-02
   7    9.990       8.811       7.628       6.444       5.287       4.219       3.174       2.127       1.072      1.0610E-02
   8    9.990       8.831       7.674       6.523       5.393       4.298       3.224       2.154       1.083      1.0724E-02
   9    9.990       8.846       7.704       6.569       5.448       4.345       3.256       2.173       1.092      1.0810E-02
  10    9.991       8.853       7.718       6.590       5.472       4.367       3.272       2.183       1.096      1.0855E-02

 HEAD WILL BE SAVED ON UNIT   51 AT END OF TIME STEP    9, STRESS PERIOD    3

 DRAWDOWN WILL BE SAVED ON UNIT   52 AT END OF TIME STEP    9, STRESS PERIOD    3
1
  VOLUMETRIC BUDGET FOR ENTIRE MODEL AT END OF TIME STEP    9, STRESS PERIOD   3
  ------------------------------------------------------------------------------

     CUMULATIVE VOLUMES      L**3       RATES FOR THIS TIME STEP      L**3/T
     ------------------                 ------------------------

           IN:                                      IN:
           ---                                      ---
             STORAGE =       25627.5273               STORAGE =          44.6800
       CONSTANT HEAD =           0.0000         CONSTANT HEAD =           0.0000
               WELLS =           0.0000                 WELLS =           0.0000
     HEAD DEP BOUNDS =       53170.0898       HEAD DEP BOUNDS =         587.3160

            TOTAL IN =       78797.6172              TOTAL IN =         631.9960

          OUT:                                     OUT:
          ----                                     ----
             STORAGE =           0.0000               STORAGE =           0.0000
       CONSTANT HEAD =           0.0000         CONSTANT HEAD =           0.0000
               WELLS =         900.0000                 WELLS =         100.0000
     HEAD DEP BOUNDS =       77897.9297       HEAD DEP BOUNDS =         531.9879

           TOTAL OUT =       78797.9297             TOTAL OUT =         631.9879

            IN - OUT =          -0.3125              IN - OUT =       8.1787E-03

 PERCENT DISCREPANCY =          -0.00     PERCENT DISCREPANCY =           0.00






         TIME SUMMARY AT END OF TIME STEP    9 IN STRESS PERIOD    3
                    SECONDS     MINUTES      HOURS       DAYS        YEARS
                    -----------------------------------------------------------
   TIME STEP LENGTH  86400.      1440.0      24.000      1.0000     2.73785E-03
 STRESS PERIOD TIME 7.77600E+05  12960.      216.00      9.0000     2.46407E-02
         TOTAL TIME 9.50400E+06 1.58400E+05  2640.0      110.00     0.30116    
1

 SOLVING FOR HEAD 

 OUTPUT CONTROL FOR STRESS PERIOD    3   TIME STEP   10
    SAVE HEAD FOR ALL LAYERS
    SAVE DRAWDOWN FOR ALL LAYERS
    SAVE BUDGET
    PRINT HEAD FOR ALL LAYERS
    PRINT BUDGET
 UBDSV1 SAVING "         STORAGE" ON UNIT  53 AT TIME STEP 10, STRESS PERIOD   3
 UBDSV2 SAVING "   CONSTANT HEAD" ON UNIT  53 AT TIME STEP 10, STRESS PERIOD   3
 UBDSV1 SAVING "FLOW RIGHT FACE " ON UNIT  53 AT TIME STEP 10, STRESS PERIOD   3
 UBDSV1 SAVING "FLOW FRONT FACE " ON UNIT  53 AT TIME STEP 10, STRESS PERIOD   3
1
              HEAD IN LAYER   1 AT END OF TIME STEP  10 IN STRESS PERIOD    3
  ---------------------------------------------------------------------------

            1           2           3           4           5           6           7           8           9          10
 ........................................................................................................................
   1    9.990       8.829       7.671       6.525       5.398       4.298       3.217       2.146       1.078      1.0673E-02
   2    9.990       8.819       7.650       6.492       5.358       4.265       3.195       2.134       1.073      1.0620E-02
   3    9.990       8.801       7.610       6.421       5.261       4.193       3.153       2.111       1.063      1.0529E-02
   4    9.990       8.781       7.557       6.307       5.057       4.079       3.098       2.087       1.054      1.0435E-02
   5    9.990       8.770       7.519       6.180       4.567       3.951       3.059       2.074       1.050      1.0394E-02
   6    9.990       8.783       7.561       6.312       5.063       4.084       3.102       2.090       1.055      1.0451E-02
   7    9.990       8.806       7.618       6.432       5.273       4.205       3.163       2.119       1.067      1.0565E-02
   8    9.990       8.827       7.665       6.512       5.380       4.286       3.213       2.146       1.079      1.0683E-02
   9    9.990       8.842       7.696       6.559       5.436       4.334       3.246       2.166       1.088      1.0773E-02
  10    9.990       8.849       7.711       6.580       5.461       4.356       3.263       2.176       1.093      1.0820E-02

 HEAD WILL BE SAVED ON UNIT   51 AT END OF TIME STEP   10, STRESS PERIOD    3

 DRAWDOWN WILL BE SAVED ON UNIT   52 AT END OF TIME STEP   10, STRESS PERIOD    3
1
  VOLUMETRIC BUDGET FOR ENTIRE MODEL AT END OF TIME STEP   10, STRESS PERIOD   3
  ------------------------------------------------------------------------------

     CUMULATIVE VOLUMES      L**3       RATES FOR THIS TIME STEP      L**3/T
     ------------------                 ------------------------

           IN:                                      IN:
           ---                                      ---
             STORAGE =       25667.4414               STORAGE =          39.9135
       CONSTANT HEAD =           0.0000         CONSTANT HEAD =           0.0000
               WELLS =           0.0000                 WELLS =           0.0000
     HEAD DEP BOUNDS =       53759.8828       HEAD DEP BOUNDS =         589.7930

            TOTAL IN =       79427.3281              TOTAL IN =         629.7065

          OUT:                                     OUT:
          ----                                     ----
             STORAGE =           0.0000               STORAGE =           0.0000
       CONSTANT HEAD =           0.0000         CONSTANT HEAD =           0.0000
               WELLS =        1000.0000                 WELLS =         100.0000
     HEAD DEP BOUNDS =       78427.6406       HEAD DEP BOUNDS =         529.7101

           TOTAL OUT =       79427.6406             TOTAL OUT =         629.7101

            IN - OUT =          -0.3125              IN - OUT =      -3.6011E-03

 PERCENT DISCREPANCY =          -0.00     PERCENT DISCREPANCY =          -0.00






         TIME SUMMARY AT END OF TIME STEP   10 IN STRESS PERIOD    3
                    SECONDS     MINUTES      HOURS       DAYS        YEARS
                    -----------------------------------------------------------
   TIME STEP LENGTH  86400.      1440.0      24.000      1.0000     2.73785E-03
 STRESS PERIOD TIME 8.64000E+05  14400.      240.00      10.000     2.73785E-02
         TOTAL TIME 9.59040E+06 1.59840E+05  2664.0      111.00     0.30390    
1

 SOLVING FOR HEAD 

 OUTPUT CONTROL FOR STRESS PERIOD    3   TIME STEP   11
    SAVE HEAD FOR ALL LAYERS
    SAVE DRAWDOWN FOR ALL LAYERS
    SAVE BUDGET
    PRINT HEAD FOR ALL LAYERS
    PRINT BUDGET
 UBDSV1 SAVING "         STORAGE" ON UNIT  53 AT TIME STEP 11, STRESS PERIOD   3
 UBDSV2 SAVING "   CONSTANT HEAD" ON UNIT  53 AT TIME STEP 11, STRESS PERIOD   3
 UBDSV1 SAVING "FLOW RIGHT FACE " ON UNIT  53 AT TIME STEP 11, STRESS PERIOD   3
 UBDSV1 SAVING "FLOW FRONT FACE " ON UNIT  53 AT TIME STEP 11, STRESS PERIOD   3
1
              HEAD IN LAYER   1 AT END OF TIME STEP  11 IN STRESS PERIOD    3
  ---------------------------------------------------------------------------

            1           2           3           4           5           6           7           8           9          10
 ........................................................................................................................
   1    9.990       8.824       7.662       6.513       5.385       4.285       3.206       2.138       1.074      1.0630E-02
   2    9.990       8.814       7.642       6.480       5.344       4.251       3.184       2.125       1.068      1.0576E-02
   3    9.990       8.797       7.601       6.409       5.248       4.180       3.141       2.103       1.059      1.0484E-02
   4    9.990       8.776       7.548       6.295       5.044       4.065       3.086       2.078       1.049      1.0389E-02
   5    9.990       8.765       7.510       6.168       4.553       3.938       3.048       2.065       1.045      1.0349E-02
   6    9.990       8.778       7.552       6.301       5.050       4.071       3.091       2.082       1.051      1.0408E-02
   7    9.990       8.801       7.610       6.421       5.261       4.193       3.152       2.111       1.063      1.0524E-02
   8    9.990       8.823       7.658       6.502       5.369       4.275       3.203       2.139       1.075      1.0646E-02
   9    9.990       8.838       7.689       6.549       5.426       4.324       3.237       2.159       1.085      1.0738E-02
  10    9.990       8.845       7.704       6.571       5.451       4.346       3.254       2.170       1.089      1.0786E-02

 HEAD WILL BE SAVED ON UNIT   51 AT END OF TIME STEP   11, STRESS PERIOD    3

 DRAWDOWN WILL BE SAVED ON UNIT   52 AT END OF TIME STEP   11, STRESS PERIOD    3
1
  VOLUMETRIC BUDGET FOR ENTIRE MODEL AT END OF TIME STEP   11, STRESS PERIOD   3
  ------------------------------------------------------------------------------

     CUMULATIVE VOLUMES      L**3       RATES FOR THIS TIME STEP      L**3/T
     ------------------                 ------------------------

           IN:                                      IN:
           ---                                      ---
             STORAGE =       25703.0879               STORAGE =          35.6456
       CONSTANT HEAD =           0.0000         CONSTANT HEAD =           0.0000
               WELLS =           0.0000                 WELLS =           0.0000
     HEAD DEP BOUNDS =       54351.8867       HEAD DEP BOUNDS =         592.0054

            TOTAL IN =       80054.9766              TOTAL IN =         627.6511

          OUT:                                     OUT:
          ----                                     ----
             STORAGE =           0.0000               STORAGE =           0.0000
       CONSTANT HEAD =           0.0000         CONSTANT HEAD =           0.0000
               WELLS =        1100.0000                 WELLS =         100.0000
     HEAD DEP BOUNDS =       78955.2891       HEAD DEP BOUNDS =         527.6482

           TOTAL OUT =       80055.2891             TOTAL OUT =         627.6482

            IN - OUT =          -0.3125              IN - OUT =       2.8687E-03

 PERCENT DISCREPANCY =          -0.00     PERCENT DISCREPANCY =           0.00






         TIME SUMMARY AT END OF TIME STEP   11 IN STRESS PERIOD    3
                    SECONDS     MINUTES      HOURS       DAYS        YEARS
                    -----------------------------------------------------------
   TIME STEP LENGTH  86400.      1440.0      24.000      1.0000     2.73785E-03
 STRESS PERIOD TIME 9.50400E+05  15840.      264.00      11.000     3.01164E-02
         TOTAL TIME 9.67680E+06 1.61280E+05  2688.0      112.00     0.30664    
1

 SOLVING FOR HEAD 

 OUTPUT CONTROL FOR STRESS PERIOD    3   TIME STEP   12
    SAVE HEAD FOR ALL LAYERS
    SAVE DRAWDOWN FOR ALL LAYERS
    SAVE BUDGET
    PRINT HEAD FOR ALL LAYERS
    PRINT BUDGET
 UBDSV1 SAVING "         STORAGE" ON UNIT  53 AT TIME STEP 12, STRESS PERIOD   3
 UBDSV2 SAVING "   CONSTANT HEAD" ON UNIT  53 AT TIME STEP 12, STRESS PERIOD   3
 UBDSV1 SAVING "FLOW RIGHT FACE " ON UNIT  53 AT TIME STEP 12, STRESS PERIOD   3
 UBDSV1 SAVING "FLOW FRONT FACE " ON UNIT  53 AT TIME STEP 12, STRESS PERIOD   3
1
              HEAD IN LAYER   1 AT END OF TIME STEP  12 IN STRESS PERIOD    3
  ---------------------------------------------------------------------------

            1           2           3           4           5           6           7           8           9          10
 ........................................................................................................................
   1    9.990       8.820       7.655       6.503       5.373       4.274       3.196       2.130       1.070      1.0590E-02
   2    9.990       8.810       7.634       6.469       5.332       4.240       3.173       2.118       1.064      1.0536E-02
   3    9.990       8.792       7.593       6.398       5.236       4.168       3.131       2.095       1.055      1.0443E-02
   4    9.990       8.772       7.540       6.284       5.032       4.053       3.075       2.070       1.045      1.0349E-02
   5    9.990       8.761       7.503       6.157       4.541       3.926       3.038       2.058       1.041      1.0309E-02
   6    9.990       8.774       7.544       6.290       5.038       4.060       3.081       2.074       1.047      1.0369E-02
   7    9.990       8.798       7.603       6.411       5.250       4.182       3.143       2.104       1.059      1.0488E-02
   8    9.990       8.819       7.651       6.493       5.359       4.265       3.194       2.132       1.072      1.0611E-02
   9    9.990       8.834       7.683       6.541       5.416       4.314       3.229       2.153       1.081      1.0706E-02
  10    9.990       8.842       7.698       6.563       5.442       4.337       3.246       2.164       1.086      1.0755E-02

 HEAD WILL BE SAVED ON UNIT   51 AT END OF TIME STEP   12, STRESS PERIOD    3

 DRAWDOWN WILL BE SAVED ON UNIT   52 AT END OF TIME STEP   12, STRESS PERIOD    3
1
  VOLUMETRIC BUDGET FOR ENTIRE MODEL AT END OF TIME STEP   12, STRESS PERIOD   3
  ------------------------------------------------------------------------------

     CUMULATIVE VOLUMES      L**3       RATES FOR THIS TIME STEP      L**3/T
     ------------------                 ------------------------

           IN:                                      IN:
           ---                                      ---
             STORAGE =       25734.9160               STORAGE =          31.8290
       CONSTANT HEAD =           0.0000         CONSTANT HEAD =           0.0000
               WELLS =           0.0000                 WELLS =           0.0000
     HEAD DEP BOUNDS =       54945.8438       HEAD DEP BOUNDS =         593.9564

            TOTAL IN =       80680.7578              TOTAL IN =         625.7853

          OUT:                                     OUT:
          ----                                     ----
             STORAGE =           0.0000               STORAGE =           0.0000
       CONSTANT HEAD =           0.0000         CONSTANT HEAD =           0.0000
               WELLS =        1200.0000                 WELLS =         100.0000
     HEAD DEP BOUNDS =       79481.0781       HEAD DEP BOUNDS =         525.7891

           TOTAL OUT =       80681.0781             TOTAL OUT =         625.7891

            IN - OUT =          -0.3203              IN - OUT =      -3.7231E-03

 PERCENT DISCREPANCY =          -0.00     PERCENT DISCREPANCY =          -0.00






         TIME SUMMARY AT END OF TIME STEP   12 IN STRESS PERIOD    3
                    SECONDS     MINUTES      HOURS       DAYS        YEARS
                    -----------------------------------------------------------
   TIME STEP LENGTH  86400.      1440.0      24.000      1.0000     2.73785E-03
 STRESS PERIOD TIME 1.03680E+06  17280.      288.00      12.000     3.28542E-02
         TOTAL TIME 9.76320E+06 1.62720E+05  2712.0      113.00     0.30938    
1

 SOLVING FOR HEAD 

 OUTPUT CONTROL FOR STRESS PERIOD    3   TIME STEP   13
    SAVE HEAD FOR ALL LAYERS
    SAVE DRAWDOWN FOR ALL LAYERS
    SAVE BUDGET
    PRINT HEAD FOR ALL LAYERS
    PRINT BUDGET
 UBDSV1 SAVING "         STORAGE" ON UNIT  53 AT TIME STEP 13, STRESS PERIOD   3
 UBDSV2 SAVING "   CONSTANT HEAD" ON UNIT  53 AT TIME STEP 13, STRESS PERIOD   3
 UBDSV1 SAVING "FLOW RIGHT FACE " ON UNIT  53 AT TIME STEP 13, STRESS PERIOD   3
 UBDSV1 SAVING "FLOW FRONT FACE " ON UNIT  53 AT TIME STEP 13, STRESS PERIOD   3
1
              HEAD IN LAYER   1 AT END OF TIME STEP  13 IN STRESS PERIOD    3
  ---------------------------------------------------------------------------

            1           2           3           4           5           6           7           8           9          10
 ........................................................................................................................
   1    9.990       8.816       7.648       6.493       5.363       4.263       3.187       2.123       1.066      1.0555E-02
   2    9.990       8.806       7.627       6.460       5.322       4.229       3.164       2.111       1.061      1.0500E-02
   3    9.990       8.788       7.586       6.389       5.225       4.157       3.121       2.088       1.051      1.0408E-02
   4    9.990       8.768       7.533       6.275       5.021       4.043       3.066       2.064       1.042      1.0313E-02
   5    9.990       8.757       7.496       6.148       4.531       3.915       3.029       2.051       1.038      1.0274E-02
   6    9.990       8.771       7.538       6.281       5.028       4.050       3.072       2.068       1.044      1.0335E-02
   7    9.990       8.794       7.597       6.403       5.241       4.172       3.134       2.098       1.056      1.0455E-02
   8    9.990       8.816       7.645       6.485       5.349       4.256       3.186       2.127       1.069      1.0580E-02
   9    9.990       8.831       7.677       6.533       5.407       4.305       3.221       2.148       1.078      1.0676E-02
  10    9.990       8.839       7.692       6.555       5.433       4.329       3.239       2.158       1.083      1.0727E-02

 HEAD WILL BE SAVED ON UNIT   51 AT END OF TIME STEP   13, STRESS PERIOD    3

 DRAWDOWN WILL BE SAVED ON UNIT   52 AT END OF TIME STEP   13, STRESS PERIOD    3
1
  VOLUMETRIC BUDGET FOR ENTIRE MODEL AT END OF TIME STEP   13, STRESS PERIOD   3
  ------------------------------------------------------------------------------

     CUMULATIVE VOLUMES      L**3       RATES FOR THIS TIME STEP      L**3/T
     ------------------                 ------------------------

           IN:                                      IN:
           ---                                      ---
             STORAGE =       25763.3340               STORAGE =          28.4186
       CONSTANT HEAD =           0.0000         CONSTANT HEAD =           0.0000
               WELLS =           0.0000                 WELLS =           0.0000
     HEAD DEP BOUNDS =       55541.5469       HEAD DEP BOUNDS =         595.7022

            TOTAL IN =       81304.8828              TOTAL IN =         624.1208

          OUT:                                     OUT:
          ----                                     ----
             STORAGE =           0.0000               STORAGE =           0.0000
       CONSTANT HEAD =           0.0000         CONSTANT HEAD =           0.0000
               WELLS =        1300.0000                 WELLS =         100.0000
     HEAD DEP BOUNDS =       80005.1953       HEAD DEP BOUNDS =         524.1174

           TOTAL OUT =       81305.1953             TOTAL OUT =         624.1174

            IN - OUT =          -0.3125              IN - OUT =       3.4180E-03

 PERCENT DISCREPANCY =          -0.00     PERCENT DISCREPANCY =           0.00






         TIME SUMMARY AT END OF TIME STEP   13 IN STRESS PERIOD    3
                    SECONDS     MINUTES      HOURS       DAYS        YEARS
                    -----------------------------------------------------------
   TIME STEP LENGTH  86400.      1440.0      24.000      1.0000     2.73785E-03
 STRESS PERIOD TIME 1.12320E+06  18720.      312.00      13.000     3.55921E-02
         TOTAL TIME 9.84960E+06 1.64160E+05  2736.0      114.00     0.31211    
1

 SOLVING FOR HEAD 

 OUTPUT CONTROL FOR STRESS PERIOD    3   TIME STEP   14
    SAVE HEAD FOR ALL LAYERS
    SAVE DRAWDOWN FOR ALL LAYERS
    SAVE BUDGET
    PRINT HEAD FOR ALL LAYERS
    PRINT BUDGET
 UBDSV1 SAVING "         STORAGE" ON UNIT  53 AT TIME STEP 14, STRESS PERIOD   3
 UBDSV2 SAVING "   CONSTANT HEAD" ON UNIT  53 AT TIME STEP 14, STRESS PERIOD   3
 UBDSV1 SAVING "FLOW RIGHT FACE " ON UNIT  53 AT TIME STEP 14, STRESS PERIOD   3
 UBDSV1 SAVING "FLOW FRONT FACE " ON UNIT  53 AT TIME STEP 14, STRESS PERIOD   3
1
              HEAD IN LAYER   1 AT END OF TIME STEP  14 IN STRESS PERIOD    3
  ---------------------------------------------------------------------------

            1           2           3           4           5           6           7           8           9          10
 ........................................................................................................................
   1    9.990       8.813       7.641       6.485       5.354       4.254       3.178       2.117       1.063      1.0523E-02
   2    9.990       8.803       7.621       6.452       5.313       4.220       3.156       2.105       1.057      1.0468E-02
   3    9.990       8.785       7.580       6.381       5.215       4.148       3.113       2.082       1.048      1.0375E-02
   4    9.990       8.765       7.527       6.267       5.012       4.033       3.058       2.057       1.038      1.0281E-02
   5    9.990       8.754       7.490       6.140       4.522       3.906       3.020       2.045       1.034      1.0243E-02
   6    9.990       8.767       7.532       6.274       5.019       4.041       3.064       2.062       1.041      1.0305E-02
   7    9.990       8.791       7.591       6.395       5.232       4.164       3.127       2.092       1.053      1.0426E-02
   8    9.990       8.813       7.640       6.477       5.341       4.248       3.179       2.121       1.066      1.0553E-02
   9    9.990       8.829       7.672       6.526       5.400       4.298       3.214       2.142       1.076      1.0649E-02
  10    9.990       8.836       7.687       6.548       5.426       4.321       3.232       2.153       1.081      1.0700E-02

 HEAD WILL BE SAVED ON UNIT   51 AT END OF TIME STEP   14, STRESS PERIOD    3

 DRAWDOWN WILL BE SAVED ON UNIT   52 AT END OF TIME STEP   14, STRESS PERIOD    3
1
  VOLUMETRIC BUDGET FOR ENTIRE MODEL AT END OF TIME STEP   14, STRESS PERIOD   3
  ------------------------------------------------------------------------------

     CUMULATIVE VOLUMES      L**3       RATES FOR THIS TIME STEP      L**3/T
     ------------------                 ------------------------

           IN:                                      IN:
           ---                                      ---
             STORAGE =       25788.7070               STORAGE =          25.3722
       CONSTANT HEAD =           0.0000         CONSTANT HEAD =           0.0000
               WELLS =           0.0000                 WELLS =           0.0000
     HEAD DEP BOUNDS =       56138.7891       HEAD DEP BOUNDS =         597.2417

            TOTAL IN =       81927.5000              TOTAL IN =         622.6139

          OUT:                                     OUT:
          ----                                     ----
             STORAGE =           0.0000               STORAGE =           0.0000
       CONSTANT HEAD =           0.0000         CONSTANT HEAD =           0.0000
               WELLS =        1400.0000                 WELLS =         100.0000
     HEAD DEP BOUNDS =       80527.8125       HEAD DEP BOUNDS =         522.6171

           TOTAL OUT =       81927.8125             TOTAL OUT =         622.6171

            IN - OUT =          -0.3125              IN - OUT =      -3.2349E-03

 PERCENT DISCREPANCY =          -0.00     PERCENT DISCREPANCY =          -0.00






         TIME SUMMARY AT END OF TIME STEP   14 IN STRESS PERIOD    3
                    SECONDS     MINUTES      HOURS       DAYS        YEARS
                    -----------------------------------------------------------
   TIME STEP LENGTH  86400.      1440.0      24.000      1.0000     2.73785E-03
 STRESS PERIOD TIME 1.20960E+06  20160.      336.00      14.000     3.83299E-02
         TOTAL TIME 9.93600E+06 1.65600E+05  2760.0      115.00     0.31485    
1

 SOLVING FOR HEAD 

 OUTPUT CONTROL FOR STRESS PERIOD    3   TIME STEP   15
    SAVE HEAD FOR ALL LAYERS
    SAVE DRAWDOWN FOR ALL LAYERS
    SAVE BUDGET
    PRINT HEAD FOR ALL LAYERS
    PRINT BUDGET
 UBDSV1 SAVING "         STORAGE" ON UNIT  53 AT TIME STEP 15, STRESS PERIOD   3
 UBDSV2 SAVING "   CONSTANT HEAD" ON UNIT  53 AT TIME STEP 15, STRESS PERIOD   3
 UBDSV1 SAVING "FLOW RIGHT FACE " ON UNIT  53 AT TIME STEP 15, STRESS PERIOD   3
 UBDSV1 SAVING "FLOW FRONT FACE " ON UNIT  53 AT TIME STEP 15, STRESS PERIOD   3
1
              HEAD IN LAYER   1 AT END OF TIME STEP  15 IN STRESS PERIOD    3
  ---------------------------------------------------------------------------

            1           2           3           4           5           6           7           8           9          10
 ........................................................................................................................
   1    9.990       8.810       7.636       6.478       5.345       4.245       3.171       2.112       1.060      1.0494E-02
   2    9.990       8.800       7.615       6.444       5.304       4.212       3.149       2.099       1.054      1.0440E-02
   3    9.990       8.782       7.574       6.373       5.207       4.139       3.106       2.077       1.045      1.0347E-02
   4    9.990       8.762       7.521       6.259       5.003       4.025       3.051       2.052       1.035      1.0253E-02
   5    9.990       8.751       7.484       6.133       4.513       3.898       3.013       2.040       1.032      1.0215E-02
   6    9.990       8.765       7.527       6.267       5.011       4.033       3.058       2.057       1.038      1.0278E-02
   7    9.990       8.788       7.586       6.389       5.224       4.156       3.120       2.087       1.050      1.0400E-02
   8    9.990       8.810       7.635       6.471       5.334       4.240       3.173       2.116       1.063      1.0527E-02
   9    9.990       8.826       7.667       6.520       5.392       4.290       3.208       2.138       1.073      1.0625E-02
  10    9.990       8.834       7.683       6.542       5.419       4.314       3.226       2.149       1.078      1.0676E-02

 HEAD WILL BE SAVED ON UNIT   51 AT END OF TIME STEP   15, STRESS PERIOD    3

 DRAWDOWN WILL BE SAVED ON UNIT   52 AT END OF TIME STEP   15, STRESS PERIOD    3
1
  VOLUMETRIC BUDGET FOR ENTIRE MODEL AT END OF TIME STEP   15, STRESS PERIOD   3
  ------------------------------------------------------------------------------

     CUMULATIVE VOLUMES      L**3       RATES FOR THIS TIME STEP      L**3/T
     ------------------                 ------------------------

           IN:                                      IN:
           ---                                      ---
             STORAGE =       25811.3594               STORAGE =          22.6518
       CONSTANT HEAD =           0.0000         CONSTANT HEAD =           0.0000
               WELLS =           0.0000                 WELLS =           0.0000
     HEAD DEP BOUNDS =       56737.4141       HEAD DEP BOUNDS =         598.6241

            TOTAL IN =       82548.7734              TOTAL IN =         621.2759

          OUT:                                     OUT:
          ----                                     ----
             STORAGE =           0.0000               STORAGE =           0.0000
       CONSTANT HEAD =           0.0000         CONSTANT HEAD =           0.0000
               WELLS =        1500.0000                 WELLS =         100.0000
     HEAD DEP BOUNDS =       81049.0859       HEAD DEP BOUNDS =         521.2725

           TOTAL OUT =       82549.0859             TOTAL OUT =         621.2725

            IN - OUT =          -0.3125              IN - OUT =       3.4790E-03

 PERCENT DISCREPANCY =          -0.00     PERCENT DISCREPANCY =           0.00






         TIME SUMMARY AT END OF TIME STEP   15 IN STRESS PERIOD    3
                    SECONDS     MINUTES      HOURS       DAYS        YEARS
                    -----------------------------------------------------------
   TIME STEP LENGTH  86400.      1440.0      24.000      1.0000     2.73785E-03
 STRESS PERIOD TIME 1.29600E+06  21600.      360.00      15.000     4.10678E-02
         TOTAL TIME 1.00224E+07 1.67040E+05  2784.0      116.00     0.31759    
1

 SOLVING FOR HEAD 

 OUTPUT CONTROL FOR STRESS PERIOD    3   TIME STEP   16
    SAVE HEAD FOR ALL LAYERS
    SAVE DRAWDOWN FOR ALL LAYERS
    SAVE BUDGET
    PRINT HEAD FOR ALL LAYERS
    PRINT BUDGET
 UBDSV1 SAVING "         STORAGE" ON UNIT  53 AT TIME STEP 16, STRESS PERIOD   3
 UBDSV2 SAVING "   CONSTANT HEAD" ON UNIT  53 AT TIME STEP 16, STRESS PERIOD   3
 UBDSV1 SAVING "FLOW RIGHT FACE " ON UNIT  53 AT TIME STEP 16, STRESS PERIOD   3
 UBDSV1 SAVING "FLOW FRONT FACE " ON UNIT  53 AT TIME STEP 16, STRESS PERIOD   3
1
              HEAD IN LAYER   1 AT END OF TIME STEP  16 IN STRESS PERIOD    3
  ---------------------------------------------------------------------------

            1           2           3           4           5           6           7           8           9          10
 ........................................................................................................................
   1    9.990       8.807       7.631       6.471       5.338       4.238       3.165       2.107       1.057      1.0468E-02
   2    9.990       8.797       7.610       6.438       5.297       4.204       3.142       2.095       1.052      1.0414E-02
   3    9.990       8.780       7.569       6.367       5.200       4.132       3.099       2.072       1.042      1.0321E-02
   4    9.990       8.759       7.516       6.253       4.996       4.018       3.044       2.047       1.033      1.0228E-02
   5    9.990       8.748       7.479       6.126       4.506       3.891       3.007       2.035       1.029      1.0190E-02
   6    9.990       8.762       7.522       6.260       5.004       4.026       3.051       2.052       1.036      1.0254E-02
   7    9.990       8.786       7.581       6.383       5.218       4.149       3.114       2.083       1.048      1.0377E-02
   8    9.990       8.808       7.630       6.465       5.327       4.234       3.167       2.112       1.061      1.0505E-02
   9    9.990       8.824       7.663       6.514       5.386       4.284       3.203       2.134       1.071      1.0603E-02
  10    9.990       8.832       7.678       6.537       5.412       4.308       3.220       2.145       1.076      1.0655E-02

 HEAD WILL BE SAVED ON UNIT   51 AT END OF TIME STEP   16, STRESS PERIOD    3

 DRAWDOWN WILL BE SAVED ON UNIT   52 AT END OF TIME STEP   16, STRESS PERIOD    3
1
  VOLUMETRIC BUDGET FOR ENTIRE MODEL AT END OF TIME STEP   16, STRESS PERIOD   3
  ------------------------------------------------------------------------------

     CUMULATIVE VOLUMES      L**3       RATES FOR THIS TIME STEP      L**3/T
     ------------------                 ------------------------

           IN:                                      IN:
           ---                                      ---
             STORAGE =       25831.5820               STORAGE =          20.2227
       CONSTANT HEAD =           0.0000         CONSTANT HEAD =           0.0000
               WELLS =           0.0000                 WELLS =           0.0000
     HEAD DEP BOUNDS =       57337.2578       HEAD DEP BOUNDS =         599.8456

            TOTAL IN =       83168.8438              TOTAL IN =         620.0684

          OUT:                                     OUT:
          ----                                     ----
             STORAGE =           0.0000               STORAGE =           0.0000
       CONSTANT HEAD =           0.0000         CONSTANT HEAD =           0.0000
               WELLS =        1600.0000                 WELLS =         100.0000
     HEAD DEP BOUNDS =       81569.1562       HEAD DEP BOUNDS =         520.0686

           TOTAL OUT =       83169.1562             TOTAL OUT =         620.0686

            IN - OUT =          -0.3125              IN - OUT =      -2.4414E-04

 PERCENT DISCREPANCY =          -0.00     PERCENT DISCREPANCY =          -0.00






         TIME SUMMARY AT END OF TIME STEP   16 IN STRESS PERIOD    3
                    SECONDS     MINUTES      HOURS       DAYS        YEARS
                    -----------------------------------------------------------
   TIME STEP LENGTH  86400.      1440.0      24.000      1.0000     2.73785E-03
 STRESS PERIOD TIME 1.38240E+06  23040.      384.00      16.000     4.38056E-02
         TOTAL TIME 1.01088E+07 1.68480E+05  2808.0      117.00     0.32033    
1

 SOLVING FOR HEAD 

 OUTPUT CONTROL FOR STRESS PERIOD    3   TIME STEP   17
    SAVE HEAD FOR ALL LAYERS
    SAVE DRAWDOWN FOR ALL LAYERS
    SAVE BUDGET
    PRINT HEAD FOR ALL LAYERS
    PRINT BUDGET
 UBDSV1 SAVING "         STORAGE" ON UNIT  53 AT TIME STEP 17, STRESS PERIOD   3
 UBDSV2 SAVING "   CONSTANT HEAD" ON UNIT  53 AT TIME STEP 17, STRESS PERIOD   3
 UBDSV1 SAVING "FLOW RIGHT FACE " ON UNIT  53 AT TIME STEP 17, STRESS PERIOD   3
 UBDSV1 SAVING "FLOW FRONT FACE " ON UNIT  53 AT TIME STEP 17, STRESS PERIOD   3
1
              HEAD IN LAYER   1 AT END OF TIME STEP  17 IN STRESS PERIOD    3
  ---------------------------------------------------------------------------

            1           2           3           4           5           6           7           8           9          10
 ........................................................................................................................
   1    9.990       8.805       7.627       6.465       5.331       4.231       3.159       2.103       1.055      1.0446E-02
   2    9.990       8.795       7.606       6.432       5.290       4.197       3.136       2.090       1.050      1.0391E-02
   3    9.990       8.777       7.565       6.361       5.193       4.125       3.094       2.068       1.040      1.0299E-02
   4    9.990       8.757       7.512       6.247       4.989       4.011       3.039       2.043       1.031      1.0205E-02
   5    9.990       8.746       7.475       6.121       4.500       3.885       3.001       2.031       1.027      1.0168E-02
   6    9.990       8.760       7.518       6.255       4.998       4.020       3.046       2.048       1.033      1.0232E-02
   7    9.990       8.784       7.577       6.377       5.211       4.143       3.109       2.079       1.046      1.0356E-02
   8    9.990       8.806       7.626       6.460       5.321       4.228       3.162       2.108       1.059      1.0484E-02
   9    9.990       8.822       7.659       6.509       5.380       4.278       3.198       2.130       1.069      1.0583E-02
  10    9.990       8.830       7.675       6.532       5.406       4.302       3.215       2.141       1.074      1.0635E-02

 HEAD WILL BE SAVED ON UNIT   51 AT END OF TIME STEP   17, STRESS PERIOD    3

 DRAWDOWN WILL BE SAVED ON UNIT   52 AT END OF TIME STEP   17, STRESS PERIOD    3
1
  VOLUMETRIC BUDGET FOR ENTIRE MODEL AT END OF TIME STEP   17, STRESS PERIOD   3
  ------------------------------------------------------------------------------

     CUMULATIVE VOLUMES      L**3       RATES FOR THIS TIME STEP      L**3/T
     ------------------                 ------------------------

           IN:                                      IN:
           ---                                      ---
             STORAGE =       25849.6367               STORAGE =          18.0539
       CONSTANT HEAD =           0.0000         CONSTANT HEAD =           0.0000
               WELLS =           0.0000                 WELLS =           0.0000
     HEAD DEP BOUNDS =       57938.1875       HEAD DEP BOUNDS =         600.9311

            TOTAL IN =       83787.8281              TOTAL IN =         618.9850

          OUT:                                     OUT:
          ----                                     ----
             STORAGE =           0.0000               STORAGE =           0.0000
       CONSTANT HEAD =           0.0000         CONSTANT HEAD =           0.0000
               WELLS =        1700.0000                 WELLS =         100.0000
     HEAD DEP BOUNDS =       82088.1484       HEAD DEP BOUNDS =         518.9915

           TOTAL OUT =       83788.1484             TOTAL OUT =         618.9915

            IN - OUT =          -0.3203              IN - OUT =      -6.4697E-03

 PERCENT DISCREPANCY =          -0.00     PERCENT DISCREPANCY =          -0.00






         TIME SUMMARY AT END OF TIME STEP   17 IN STRESS PERIOD    3
                    SECONDS     MINUTES      HOURS       DAYS        YEARS
                    -----------------------------------------------------------
   TIME STEP LENGTH  86400.      1440.0      24.000      1.0000     2.73785E-03
 STRESS PERIOD TIME 1.46880E+06  24480.      408.00      17.000     4.65435E-02
         TOTAL TIME 1.01952E+07 1.69920E+05  2832.0      118.00     0.32307    
1

 SOLVING FOR HEAD 

 OUTPUT CONTROL FOR STRESS PERIOD    3   TIME STEP   18
    SAVE HEAD FOR ALL LAYERS
    SAVE DRAWDOWN FOR ALL LAYERS
    SAVE BUDGET
    PRINT HEAD FOR ALL LAYERS
    PRINT BUDGET
 UBDSV1 SAVING "         STORAGE" ON UNIT  53 AT TIME STEP 18, STRESS PERIOD   3
 UBDSV2 SAVING "   CONSTANT HEAD" ON UNIT  53 AT TIME STEP 18, STRESS PERIOD   3
 UBDSV1 SAVING "FLOW RIGHT FACE " ON UNIT  53 AT TIME STEP 18, STRESS PERIOD   3
 UBDSV1 SAVING "FLOW FRONT FACE " ON UNIT  53 AT TIME STEP 18, STRESS PERIOD   3
1
              HEAD IN LAYER   1 AT END OF TIME STEP  18 IN STRESS PERIOD    3
  ---------------------------------------------------------------------------

            1           2           3           4           5           6           7           8           9          10
 ........................................................................................................................
   1    9.990       8.803       7.623       6.460       5.325       4.225       3.154       2.099       1.053      1.0425E-02
   2    9.990       8.793       7.602       6.427       5.284       4.192       3.131       2.086       1.047      1.0371E-02
   3    9.990       8.775       7.561       6.356       5.187       4.120       3.088       2.064       1.038      1.0279E-02
   4    9.990       8.755       7.508       6.242       4.984       4.005       3.034       2.039       1.029      1.0185E-02
   5    9.990       8.744       7.471       6.116       4.494       3.879       2.996       2.027       1.025      1.0148E-02
   6    9.990       8.758       7.514       6.250       4.992       4.014       3.041       2.045       1.031      1.0213E-02
   7    9.990       8.782       7.574       6.372       5.206       4.138       3.104       2.075       1.044      1.0337E-02
   8    9.990       8.804       7.623       6.455       5.316       4.222       3.157       2.105       1.057      1.0466E-02
   9    9.990       8.820       7.655       6.504       5.375       4.273       3.193       2.126       1.067      1.0565E-02
  10    9.990       8.828       7.671       6.527       5.401       4.297       3.211       2.138       1.072      1.0617E-02

 HEAD WILL BE SAVED ON UNIT   51 AT END OF TIME STEP   18, STRESS PERIOD    3

 DRAWDOWN WILL BE SAVED ON UNIT   52 AT END OF TIME STEP   18, STRESS PERIOD    3
1
  VOLUMETRIC BUDGET FOR ENTIRE MODEL AT END OF TIME STEP   18, STRESS PERIOD   3
  ------------------------------------------------------------------------------

     CUMULATIVE VOLUMES      L**3       RATES FOR THIS TIME STEP      L**3/T
     ------------------                 ------------------------

           IN:                                      IN:
           ---                                      ---
             STORAGE =       25865.7539               STORAGE =          16.1175
       CONSTANT HEAD =           0.0000         CONSTANT HEAD =           0.0000
               WELLS =           0.0000                 WELLS =           0.0000
     HEAD DEP BOUNDS =       58540.0938       HEAD DEP BOUNDS =         601.9067

            TOTAL IN =       84405.8438              TOTAL IN =         618.0241

          OUT:                                     OUT:
          ----                                     ----
             STORAGE =           0.0000               STORAGE =           0.0000
       CONSTANT HEAD =           0.0000         CONSTANT HEAD =           0.0000
               WELLS =        1800.0000                 WELLS =         100.0000
     HEAD DEP BOUNDS =       82606.1797       HEAD DEP BOUNDS =         518.0283

           TOTAL OUT =       84406.1797             TOTAL OUT =         618.0283

            IN - OUT =          -0.3359              IN - OUT =      -4.1504E-03

 PERCENT DISCREPANCY =          -0.00     PERCENT DISCREPANCY =          -0.00






         TIME SUMMARY AT END OF TIME STEP   18 IN STRESS PERIOD    3
                    SECONDS     MINUTES      HOURS       DAYS        YEARS
                    -----------------------------------------------------------
   TIME STEP LENGTH  86400.      1440.0      24.000      1.0000     2.73785E-03
 STRESS PERIOD TIME 1.55520E+06  25920.      432.00      18.000     4.92813E-02
         TOTAL TIME 1.02816E+07 1.71360E+05  2856.0      119.00     0.32580    
1

 SOLVING FOR HEAD 

 OUTPUT CONTROL FOR STRESS PERIOD    3   TIME STEP   19
    SAVE HEAD FOR ALL LAYERS
    SAVE DRAWDOWN FOR ALL LAYERS
    SAVE BUDGET
    PRINT HEAD FOR ALL LAYERS
    PRINT BUDGET
 UBDSV1 SAVING "         STORAGE" ON UNIT  53 AT TIME STEP 19, STRESS PERIOD   3
 UBDSV2 SAVING "   CONSTANT HEAD" ON UNIT  53 AT TIME STEP 19, STRESS PERIOD   3
 UBDSV1 SAVING "FLOW RIGHT FACE " ON UNIT  53 AT TIME STEP 19, STRESS PERIOD   3
 UBDSV1 SAVING "FLOW FRONT FACE " ON UNIT  53 AT TIME STEP 19, STRESS PERIOD   3
1
              HEAD IN LAYER   1 AT END OF TIME STEP  19 IN STRESS PERIOD    3
  ---------------------------------------------------------------------------

            1           2           3           4           5           6           7           8           9          10
 ........................................................................................................................
   1    9.990       8.801       7.619       6.455       5.320       4.220       3.149       2.096       1.051      1.0407E-02
   2    9.990       8.791       7.598       6.422       5.279       4.186       3.127       2.083       1.046      1.0353E-02
   3    9.990       8.773       7.558       6.351       5.182       4.114       3.084       2.061       1.036      1.0261E-02
   4    9.990       8.753       7.505       6.238       4.978       4.000       3.029       2.036       1.027      1.0167E-02
   5    9.990       8.742       7.468       6.111       4.489       3.874       2.992       2.024       1.023      1.0131E-02
   6    9.990       8.756       7.511       6.245       4.987       4.009       3.037       2.041       1.030      1.0196E-02
   7    9.990       8.780       7.571       6.368       5.201       4.133       3.100       2.072       1.042      1.0320E-02
   8    9.990       8.803       7.620       6.451       5.311       4.218       3.153       2.102       1.055      1.0449E-02
   9    9.990       8.818       7.652       6.500       5.370       4.268       3.189       2.123       1.065      1.0549E-02
  10    9.990       8.826       7.668       6.523       5.397       4.292       3.207       2.135       1.071      1.0601E-02

 HEAD WILL BE SAVED ON UNIT   51 AT END OF TIME STEP   19, STRESS PERIOD    3

 DRAWDOWN WILL BE SAVED ON UNIT   52 AT END OF TIME STEP   19, STRESS PERIOD    3
1
  VOLUMETRIC BUDGET FOR ENTIRE MODEL AT END OF TIME STEP   19, STRESS PERIOD   3
  ------------------------------------------------------------------------------

     CUMULATIVE VOLUMES      L**3       RATES FOR THIS TIME STEP      L**3/T
     ------------------                 ------------------------

           IN:                                      IN:
           ---                                      ---
             STORAGE =       25880.1426               STORAGE =          14.3892
       CONSTANT HEAD =           0.0000         CONSTANT HEAD =           0.0000
               WELLS =           0.0000                 WELLS =           0.0000
     HEAD DEP BOUNDS =       59142.8750       HEAD DEP BOUNDS =         602.7817

            TOTAL IN =       85023.0156              TOTAL IN =         617.1709

          OUT:                                     OUT:
          ----                                     ----
             STORAGE =           0.0000               STORAGE =           0.0000
       CONSTANT HEAD =           0.0000         CONSTANT HEAD =           0.0000
               WELLS =        1900.0000                 WELLS =         100.0000
     HEAD DEP BOUNDS =       83123.3438       HEAD DEP BOUNDS =         517.1673

           TOTAL OUT =       85023.3438             TOTAL OUT =         617.1673

            IN - OUT =          -0.3281              IN - OUT =       3.6011E-03

 PERCENT DISCREPANCY =          -0.00     PERCENT DISCREPANCY =           0.00






         TIME SUMMARY AT END OF TIME STEP   19 IN STRESS PERIOD    3
                    SECONDS     MINUTES      HOURS       DAYS        YEARS
                    -----------------------------------------------------------
   TIME STEP LENGTH  86400.      1440.0      24.000      1.0000     2.73785E-03
 STRESS PERIOD TIME 1.64160E+06  27360.      456.00      19.000     5.20192E-02
         TOTAL TIME 1.03680E+07 1.72800E+05  2880.0      120.00     0.32854    
1

 SOLVING FOR HEAD 

 OUTPUT CONTROL FOR STRESS PERIOD    3   TIME STEP   20
    SAVE HEAD FOR ALL LAYERS
    SAVE DRAWDOWN FOR ALL LAYERS
    SAVE BUDGET
    PRINT HEAD FOR ALL LAYERS
    PRINT BUDGET
 UBDSV1 SAVING "         STORAGE" ON UNIT  53 AT TIME STEP 20, STRESS PERIOD   3
 UBDSV2 SAVING "   CONSTANT HEAD" ON UNIT  53 AT TIME STEP 20, STRESS PERIOD   3
 UBDSV1 SAVING "FLOW RIGHT FACE " ON UNIT  53 AT TIME STEP 20, STRESS PERIOD   3
 UBDSV1 SAVING "FLOW FRONT FACE " ON UNIT  53 AT TIME STEP 20, STRESS PERIOD   3
1
              HEAD IN LAYER   1 AT END OF TIME STEP  20 IN STRESS PERIOD    3
  ---------------------------------------------------------------------------

            1           2           3           4           5           6           7           8           9          10
 ........................................................................................................................
   1    9.990       8.799       7.616       6.451       5.315       4.215       3.145       2.092       1.050      1.0391E-02
   2    9.990       8.789       7.595       6.418       5.274       4.182       3.123       2.080       1.044      1.0337E-02
   3    9.990       8.772       7.555       6.347       5.177       4.110       3.080       2.058       1.035      1.0245E-02
   4    9.990       8.751       7.502       6.233       4.974       3.996       3.025       2.033       1.025      1.0152E-02
   5    9.990       8.741       7.465       6.107       4.484       3.869       2.988       2.021       1.022      1.0115E-02
   6    9.990       8.755       7.508       6.242       4.983       4.005       3.033       2.039       1.028      1.0180E-02
   7    9.990       8.779       7.568       6.364       5.197       4.129       3.096       2.069       1.041      1.0305E-02
   8    9.990       8.801       7.617       6.447       5.307       4.213       3.149       2.099       1.054      1.0435E-02
   9    9.990       8.817       7.650       6.496       5.366       4.264       3.185       2.121       1.064      1.0534E-02
  10    9.990       8.825       7.665       6.519       5.393       4.288       3.203       2.132       1.069      1.0587E-02

 HEAD WILL BE SAVED ON UNIT   51 AT END OF TIME STEP   20, STRESS PERIOD    3

 DRAWDOWN WILL BE SAVED ON UNIT   52 AT END OF TIME STEP   20, STRESS PERIOD    3
1
  VOLUMETRIC BUDGET FOR ENTIRE MODEL AT END OF TIME STEP   20, STRESS PERIOD   3
  ------------------------------------------------------------------------------

     CUMULATIVE VOLUMES      L**3       RATES FOR THIS TIME STEP      L**3/T
     ------------------                 ------------------------

           IN:                                      IN:
           ---                                      ---
             STORAGE =       25892.9883               STORAGE =          12.8459
       CONSTANT HEAD =           0.0000         CONSTANT HEAD =           0.0000
               WELLS =           0.0000                 WELLS =           0.0000
     HEAD DEP BOUNDS =       59746.4297       HEAD DEP BOUNDS =         603.5562

            TOTAL IN =       85639.4219              TOTAL IN =         616.4022

          OUT:                                     OUT:
          ----                                     ----
             STORAGE =           0.0000               STORAGE =           0.0000
       CONSTANT HEAD =           0.0000         CONSTANT HEAD =           0.0000
               WELLS =        2000.0000                 WELLS =         100.0000
     HEAD DEP BOUNDS =       83639.7422       HEAD DEP BOUNDS =         516.3979

           TOTAL OUT =       85639.7422             TOTAL OUT =         616.3979

            IN - OUT =          -0.3203              IN - OUT =       4.2114E-03

 PERCENT DISCREPANCY =          -0.00     PERCENT DISCREPANCY =           0.00






         TIME SUMMARY AT END OF TIME STEP   20 IN STRESS PERIOD    3
                    SECONDS     MINUTES      HOURS       DAYS        YEARS
                    -----------------------------------------------------------
   TIME STEP LENGTH  86400.      1440.0      24.000      1.0000     2.73785E-03
 STRESS PERIOD TIME 1.72800E+06  28800.      480.00      20.000     5.47570E-02
         TOTAL TIME 1.04544E+07 1.74240E+05  2904.0      121.00     0.33128    
1

 SOLVING FOR HEAD 

 OUTPUT CONTROL FOR STRESS PERIOD    3   TIME STEP   21
    SAVE HEAD FOR ALL LAYERS
    SAVE DRAWDOWN FOR ALL LAYERS
    SAVE BUDGET
    PRINT HEAD FOR ALL LAYERS
    PRINT BUDGET
 UBDSV1 SAVING "         STORAGE" ON UNIT  53 AT TIME STEP 21, STRESS PERIOD   3
 UBDSV2 SAVING "   CONSTANT HEAD" ON UNIT  53 AT TIME STEP 21, STRESS PERIOD   3
 UBDSV1 SAVING "FLOW RIGHT FACE " ON UNIT  53 AT TIME STEP 21, STRESS PERIOD   3
 UBDSV1 SAVING "FLOW FRONT FACE " ON UNIT  53 AT TIME STEP 21, STRESS PERIOD   3
1
              HEAD IN LAYER   1 AT END OF TIME STEP  21 IN STRESS PERIOD    3
  ---------------------------------------------------------------------------

            1           2           3           4           5           6           7           8           9          10
 ........................................................................................................................
   1    9.990       8.798       7.614       6.448       5.311       4.211       3.141       2.090       1.048      1.0376E-02
   2    9.990       8.788       7.593       6.414       5.270       4.178       3.119       2.077       1.043      1.0322E-02
   3    9.990       8.770       7.552       6.343       5.173       4.106       3.076       2.055       1.033      1.0230E-02
   4    9.990       8.750       7.499       6.230       4.970       3.992       3.022       2.030       1.024      1.0137E-02
   5    9.990       8.739       7.463       6.104       4.480       3.865       2.985       2.018       1.020      1.0101E-02
   6    9.990       8.753       7.505       6.238       4.979       4.001       3.029       2.036       1.027      1.0167E-02
   7    9.990       8.777       7.565       6.361       5.193       4.125       3.093       2.067       1.039      1.0292E-02
   8    9.990       8.800       7.615       6.444       5.303       4.210       3.146       2.097       1.053      1.0422E-02
   9    9.990       8.815       7.647       6.493       5.362       4.260       3.182       2.118       1.063      1.0521E-02
  10    9.990       8.823       7.663       6.516       5.389       4.284       3.200       2.129       1.068      1.0574E-02

 HEAD WILL BE SAVED ON UNIT   51 AT END OF TIME STEP   21, STRESS PERIOD    3

 DRAWDOWN WILL BE SAVED ON UNIT   52 AT END OF TIME STEP   21, STRESS PERIOD    3
1
  VOLUMETRIC BUDGET FOR ENTIRE MODEL AT END OF TIME STEP   21, STRESS PERIOD   3
  ------------------------------------------------------------------------------

     CUMULATIVE VOLUMES      L**3       RATES FOR THIS TIME STEP      L**3/T
     ------------------                 ------------------------

           IN:                                      IN:
           ---                                      ---
             STORAGE =       25904.4570               STORAGE =          11.4681
       CONSTANT HEAD =           0.0000         CONSTANT HEAD =           0.0000
               WELLS =           0.0000                 WELLS =           0.0000
     HEAD DEP BOUNDS =       60350.6719       HEAD DEP BOUNDS =         604.2403

            TOTAL IN =       86255.1250              TOTAL IN =         615.7084

          OUT:                                     OUT:
          ----                                     ----
             STORAGE =           0.0000               STORAGE =           0.0000
       CONSTANT HEAD =           0.0000         CONSTANT HEAD =           0.0000
               WELLS =        2100.0000                 WELLS =         100.0000
     HEAD DEP BOUNDS =       84155.4531       HEAD DEP BOUNDS =         515.7106

           TOTAL OUT =       86255.4531             TOTAL OUT =         615.7106

            IN - OUT =          -0.3281              IN - OUT =      -2.1973E-03

 PERCENT DISCREPANCY =          -0.00     PERCENT DISCREPANCY =          -0.00






         TIME SUMMARY AT END OF TIME STEP   21 IN STRESS PERIOD    3
                    SECONDS     MINUTES      HOURS       DAYS        YEARS
                    -----------------------------------------------------------
   TIME STEP LENGTH  86400.      1440.0      24.000      1.0000     2.73785E-03
 STRESS PERIOD TIME 1.81440E+06  30240.      504.00      21.000     5.74949E-02
         TOTAL TIME 1.05408E+07 1.75680E+05  2928.0      122.00     0.33402    
1

 SOLVING FOR HEAD 

 OUTPUT CONTROL FOR STRESS PERIOD    3   TIME STEP   22
    SAVE HEAD FOR ALL LAYERS
    SAVE DRAWDOWN FOR ALL LAYERS
    SAVE BUDGET
    PRINT HEAD FOR ALL LAYERS
    PRINT BUDGET
 UBDSV1 SAVING "         STORAGE" ON UNIT  53 AT TIME STEP 22, STRESS PERIOD   3
 UBDSV2 SAVING "   CONSTANT HEAD" ON UNIT  53 AT TIME STEP 22, STRESS PERIOD   3
 UBDSV1 SAVING "FLOW RIGHT FACE " ON UNIT  53 AT TIME STEP 22, STRESS PERIOD   3
 UBDSV1 SAVING "FLOW FRONT FACE " ON UNIT  53 AT TIME STEP 22, STRESS PERIOD   3
1
              HEAD IN LAYER   1 AT END OF TIME STEP  22 IN STRESS PERIOD    3
  ---------------------------------------------------------------------------

            1           2           3           4           5           6           7           8           9          10
 ........................................................................................................................
   1    9.990       8.796       7.611       6.444       5.307       4.208       3.138       2.087       1.047      1.0363E-02
   2    9.990       8.787       7.590       6.411       5.266       4.174       3.116       2.075       1.041      1.0309E-02
   3    9.990       8.769       7.550       6.340       5.170       4.102       3.073       2.053       1.032      1.0218E-02
   4    9.990       8.749       7.497       6.227       4.966       3.988       3.018       2.028       1.023      1.0125E-02
   5    9.990       8.738       7.460       6.100       4.477       3.862       2.981       2.016       1.019      1.0089E-02
   6    9.990       8.752       7.503       6.235       4.975       3.997       3.026       2.034       1.026      1.0154E-02
   7    9.990       8.776       7.563       6.358       5.189       4.121       3.090       2.064       1.038      1.0280E-02
   8    9.990       8.798       7.612       6.441       5.300       4.206       3.143       2.094       1.051      1.0410E-02
   9    9.990       8.814       7.645       6.490       5.359       4.257       3.179       2.116       1.061      1.0509E-02
  10    9.990       8.822       7.661       6.513       5.385       4.281       3.197       2.127       1.067      1.0562E-02

 HEAD WILL BE SAVED ON UNIT   51 AT END OF TIME STEP   22, STRESS PERIOD    3

 DRAWDOWN WILL BE SAVED ON UNIT   52 AT END OF TIME STEP   22, STRESS PERIOD    3
1
  VOLUMETRIC BUDGET FOR ENTIRE MODEL AT END OF TIME STEP   22, STRESS PERIOD   3
  ------------------------------------------------------------------------------

     CUMULATIVE VOLUMES      L**3       RATES FOR THIS TIME STEP      L**3/T
     ------------------                 ------------------------

           IN:                                      IN:
           ---                                      ---
             STORAGE =       25914.6953               STORAGE =          10.2380
       CONSTANT HEAD =           0.0000         CONSTANT HEAD =           0.0000
               WELLS =           0.0000                 WELLS =           0.0000
     HEAD DEP BOUNDS =       60955.5234       HEAD DEP BOUNDS =         604.8506

            TOTAL IN =       86870.2188              TOTAL IN =         615.0886

          OUT:                                     OUT:
          ----                                     ----
             STORAGE =           0.0000               STORAGE =           0.0000
       CONSTANT HEAD =           0.0000         CONSTANT HEAD =           0.0000
               WELLS =        2200.0000                 WELLS =         100.0000
     HEAD DEP BOUNDS =       84670.5469       HEAD DEP BOUNDS =         515.0966

           TOTAL OUT =       86870.5469             TOTAL OUT =         615.0966

            IN - OUT =          -0.3281              IN - OUT =      -7.9956E-03

 PERCENT DISCREPANCY =          -0.00     PERCENT DISCREPANCY =          -0.00






         TIME SUMMARY AT END OF TIME STEP   22 IN STRESS PERIOD    3
                    SECONDS     MINUTES      HOURS       DAYS        YEARS
                    -----------------------------------------------------------
   TIME STEP LENGTH  86400.      1440.0      24.000      1.0000     2.73785E-03
 STRESS PERIOD TIME 1.90080E+06  31680.      528.00      22.000     6.02327E-02
         TOTAL TIME 1.06272E+07 1.77120E+05  2952.0      123.00     0.33676    
1

 SOLVING FOR HEAD 

 OUTPUT CONTROL FOR STRESS PERIOD    3   TIME STEP   23
    SAVE HEAD FOR ALL LAYERS
    SAVE DRAWDOWN FOR ALL LAYERS
    SAVE BUDGET
    PRINT HEAD FOR ALL LAYERS
    PRINT BUDGET
 UBDSV1 SAVING "         STORAGE" ON UNIT  53 AT TIME STEP 23, STRESS PERIOD   3
 UBDSV2 SAVING "   CONSTANT HEAD" ON UNIT  53 AT TIME STEP 23, STRESS PERIOD   3
 UBDSV1 SAVING "FLOW RIGHT FACE " ON UNIT  53 AT TIME STEP 23, STRESS PERIOD   3
 UBDSV1 SAVING "FLOW FRONT FACE " ON UNIT  53 AT TIME STEP 23, STRESS PERIOD   3
1
              HEAD IN LAYER   1 AT END OF TIME STEP  23 IN STRESS PERIOD    3
  ---------------------------------------------------------------------------

            1           2           3           4           5           6           7           8           9          10
 ........................................................................................................................
   1    9.990       8.795       7.609       6.441       5.304       4.204       3.135       2.085       1.046      1.0352E-02
   2    9.990       8.786       7.588       6.408       5.263       4.171       3.113       2.073       1.040      1.0298E-02
   3    9.990       8.768       7.548       6.337       5.166       4.099       3.070       2.050       1.031      1.0206E-02
   4    9.990       8.748       7.495       6.224       4.963       3.985       3.016       2.026       1.021      1.0114E-02
   5    9.990       8.737       7.458       6.098       4.474       3.859       2.979       2.014       1.018      1.0078E-02
   6    9.990       8.751       7.501       6.232       4.972       3.994       3.023       2.032       1.024      1.0144E-02
   7    9.990       8.775       7.561       6.355       5.186       4.118       3.087       2.062       1.037      1.0269E-02
   8    9.990       8.797       7.610       6.438       5.297       4.203       3.140       2.092       1.050      1.0399E-02
   9    9.990       8.813       7.643       6.488       5.356       4.254       3.176       2.114       1.060      1.0499E-02
  10    9.990       8.821       7.659       6.510       5.382       4.278       3.194       2.125       1.066      1.0552E-02

 HEAD WILL BE SAVED ON UNIT   51 AT END OF TIME STEP   23, STRESS PERIOD    3

 DRAWDOWN WILL BE SAVED ON UNIT   52 AT END OF TIME STEP   23, STRESS PERIOD    3
1
  VOLUMETRIC BUDGET FOR ENTIRE MODEL AT END OF TIME STEP   23, STRESS PERIOD   3
  ------------------------------------------------------------------------------

     CUMULATIVE VOLUMES      L**3       RATES FOR THIS TIME STEP      L**3/T
     ------------------                 ------------------------

           IN:                                      IN:
           ---                                      ---
             STORAGE =       25923.8359               STORAGE =           9.1401
       CONSTANT HEAD =           0.0000         CONSTANT HEAD =           0.0000
               WELLS =           0.0000                 WELLS =           0.0000
     HEAD DEP BOUNDS =       61560.9219       HEAD DEP BOUNDS =         605.3992

            TOTAL IN =       87484.7578              TOTAL IN =         614.5392

          OUT:                                     OUT:
          ----                                     ----
             STORAGE =           0.0000               STORAGE =           0.0000
       CONSTANT HEAD =           0.0000         CONSTANT HEAD =           0.0000
               WELLS =        2300.0000                 WELLS =         100.0000
     HEAD DEP BOUNDS =       85185.0938       HEAD DEP BOUNDS =         514.5483

           TOTAL OUT =       87485.0938             TOTAL OUT =         614.5483

            IN - OUT =          -0.3359              IN - OUT =      -9.0942E-03

 PERCENT DISCREPANCY =          -0.00     PERCENT DISCREPANCY =          -0.00






         TIME SUMMARY AT END OF TIME STEP   23 IN STRESS PERIOD    3
                    SECONDS     MINUTES      HOURS       DAYS        YEARS
                    -----------------------------------------------------------
   TIME STEP LENGTH  86400.      1440.0      24.000      1.0000     2.73785E-03
 STRESS PERIOD TIME 1.98720E+06  33120.      552.00      23.000     6.29706E-02
         TOTAL TIME 1.07136E+07 1.78560E+05  2976.0      124.00     0.33949    
1

 SOLVING FOR HEAD 

 OUTPUT CONTROL FOR STRESS PERIOD    3   TIME STEP   24
    SAVE HEAD FOR ALL LAYERS
    SAVE DRAWDOWN FOR ALL LAYERS
    SAVE BUDGET
    PRINT HEAD FOR ALL LAYERS
    PRINT BUDGET
 UBDSV1 SAVING "         STORAGE" ON UNIT  53 AT TIME STEP 24, STRESS PERIOD   3
 UBDSV2 SAVING "   CONSTANT HEAD" ON UNIT  53 AT TIME STEP 24, STRESS PERIOD   3
 UBDSV1 SAVING "FLOW RIGHT FACE " ON UNIT  53 AT TIME STEP 24, STRESS PERIOD   3
 UBDSV1 SAVING "FLOW FRONT FACE " ON UNIT  53 AT TIME STEP 24, STRESS PERIOD   3
1
              HEAD IN LAYER   1 AT END OF TIME STEP  24 IN STRESS PERIOD    3
  ---------------------------------------------------------------------------

            1           2           3           4           5           6           7           8           9          10
 ........................................................................................................................
   1    9.990       8.794       7.607       6.439       5.301       4.201       3.132       2.083       1.045      1.0342E-02
   2    9.990       8.785       7.586       6.406       5.260       4.168       3.110       2.071       1.039      1.0288E-02
   3    9.990       8.767       7.546       6.335       5.163       4.096       3.068       2.048       1.030      1.0196E-02
   4    9.990       8.747       7.493       6.221       4.960       3.982       3.013       2.024       1.020      1.0104E-02
   5    9.990       8.736       7.456       6.095       4.471       3.856       2.976       2.012       1.017      1.0068E-02
   6    9.990       8.750       7.499       6.230       4.970       3.991       3.021       2.030       1.023      1.0134E-02
   7    9.990       8.774       7.559       6.353       5.184       4.116       3.084       2.061       1.036      1.0259E-02
   8    9.990       8.796       7.609       6.436       5.294       4.200       3.138       2.090       1.049      1.0390E-02
   9    9.990       8.812       7.641       6.485       5.353       4.251       3.174       2.112       1.059      1.0489E-02
  10    9.990       8.820       7.657       6.508       5.380       4.275       3.192       2.123       1.065      1.0542E-02

 HEAD WILL BE SAVED ON UNIT   51 AT END OF TIME STEP   24, STRESS PERIOD    3

 DRAWDOWN WILL BE SAVED ON UNIT   52 AT END OF TIME STEP   24, STRESS PERIOD    3
1
  VOLUMETRIC BUDGET FOR ENTIRE MODEL AT END OF TIME STEP   24, STRESS PERIOD   3
  ------------------------------------------------------------------------------

     CUMULATIVE VOLUMES      L**3       RATES FOR THIS TIME STEP      L**3/T
     ------------------                 ------------------------

           IN:                                      IN:
           ---                                      ---
             STORAGE =       25931.9961               STORAGE =           8.1598
       CONSTANT HEAD =           0.0000         CONSTANT HEAD =           0.0000
               WELLS =           0.0000                 WELLS =           0.0000
     HEAD DEP BOUNDS =       62166.8203       HEAD DEP BOUNDS =         605.8969

            TOTAL IN =       88098.8125              TOTAL IN =         614.0567

          OUT:                                     OUT:
          ----                                     ----
             STORAGE =           0.0000               STORAGE =           0.0000
       CONSTANT HEAD =           0.0000         CONSTANT HEAD =           0.0000
               WELLS =        2400.0000                 WELLS =         100.0000
     HEAD DEP BOUNDS =       85699.1562       HEAD DEP BOUNDS =         514.0587

           TOTAL OUT =       88099.1562             TOTAL OUT =         614.0587

            IN - OUT =          -0.3438              IN - OUT =      -1.9531E-03

 PERCENT DISCREPANCY =          -0.00     PERCENT DISCREPANCY =          -0.00






         TIME SUMMARY AT END OF TIME STEP   24 IN STRESS PERIOD    3
                    SECONDS     MINUTES      HOURS       DAYS        YEARS
                    -----------------------------------------------------------
   TIME STEP LENGTH  86400.      1440.0      24.000      1.0000     2.73785E-03
 STRESS PERIOD TIME 2.07360E+06  34560.      576.00      24.000     6.57084E-02
         TOTAL TIME 1.08000E+07 1.80000E+05  3000.0      125.00     0.34223    
1

 SOLVING FOR HEAD 

 OUTPUT CONTROL FOR STRESS PERIOD    3   TIME STEP   25
    SAVE HEAD FOR ALL LAYERS
    SAVE DRAWDOWN FOR ALL LAYERS
    SAVE BUDGET
    PRINT HEAD FOR ALL LAYERS
    PRINT BUDGET
 UBDSV1 SAVING "         STORAGE" ON UNIT  53 AT TIME STEP 25, STRESS PERIOD   3
 UBDSV2 SAVING "   CONSTANT HEAD" ON UNIT  53 AT TIME STEP 25, STRESS PERIOD   3
 UBDSV1 SAVING "FLOW RIGHT FACE " ON UNIT  53 AT TIME STEP 25, STRESS PERIOD   3
 UBDSV1 SAVING "FLOW FRONT FACE " ON UNIT  53 AT TIME STEP 25, STRESS PERIOD   3
1
              HEAD IN LAYER   1 AT END OF TIME STEP  25 IN STRESS PERIOD    3
  ---------------------------------------------------------------------------

            1           2           3           4           5           6           7           8           9          10
 ........................................................................................................................
   1    9.990       8.793       7.605       6.436       5.298       4.199       3.130       2.082       1.044      1.0333E-02
   2    9.990       8.784       7.584       6.403       5.258       4.165       3.108       2.069       1.038      1.0279E-02
   3    9.990       8.766       7.544       6.332       5.161       4.093       3.065       2.047       1.029      1.0187E-02
   4    9.990       8.746       7.491       6.219       4.957       3.979       3.011       2.022       1.020      1.0095E-02
   5    9.990       8.735       7.455       6.093       4.468       3.853       2.974       2.010       1.016      1.0059E-02
   6    9.990       8.749       7.498       6.228       4.967       3.989       3.019       2.028       1.023      1.0125E-02
   7    9.990       8.773       7.557       6.350       5.181       4.113       3.082       2.059       1.035      1.0251E-02
   8    9.990       8.796       7.607       6.433       5.291       4.198       3.136       2.089       1.049      1.0381E-02
   9    9.990       8.811       7.640       6.483       5.351       4.249       3.172       2.111       1.059      1.0481E-02
  10    9.990       8.819       7.655       6.506       5.377       4.273       3.189       2.122       1.064      1.0534E-02

 HEAD WILL BE SAVED ON UNIT   51 AT END OF TIME STEP   25, STRESS PERIOD    3

 DRAWDOWN WILL BE SAVED ON UNIT   52 AT END OF TIME STEP   25, STRESS PERIOD    3
1
  VOLUMETRIC BUDGET FOR ENTIRE MODEL AT END OF TIME STEP   25, STRESS PERIOD   3
  ------------------------------------------------------------------------------

     CUMULATIVE VOLUMES      L**3       RATES FOR THIS TIME STEP      L**3/T
     ------------------                 ------------------------

           IN:                                      IN:
           ---                                      ---
             STORAGE =       25939.2812               STORAGE =           7.2847
       CONSTANT HEAD =           0.0000         CONSTANT HEAD =           0.0000
               WELLS =           0.0000                 WELLS =           0.0000
     HEAD DEP BOUNDS =       62773.1641       HEAD DEP BOUNDS =         606.3423

            TOTAL IN =       88712.4453              TOTAL IN =         613.6270

          OUT:                                     OUT:
          ----                                     ----
             STORAGE =           0.0000               STORAGE =           0.0000
       CONSTANT HEAD =           0.0000         CONSTANT HEAD =           0.0000
               WELLS =        2500.0000                 WELLS =         100.0000
     HEAD DEP BOUNDS =       86212.7812       HEAD DEP BOUNDS =         513.6214

           TOTAL OUT =       88712.7812             TOTAL OUT =         613.6214

            IN - OUT =          -0.3359              IN - OUT =       5.5542E-03

 PERCENT DISCREPANCY =          -0.00     PERCENT DISCREPANCY =           0.00






         TIME SUMMARY AT END OF TIME STEP   25 IN STRESS PERIOD    3
                    SECONDS     MINUTES      HOURS       DAYS        YEARS
                    -----------------------------------------------------------
   TIME STEP LENGTH  86400.      1440.0      24.000      1.0000     2.73785E-03
 STRESS PERIOD TIME 2.16000E+06  36000.      600.00      25.000     6.84463E-02
         TOTAL TIME 1.08864E+07 1.81440E+05  3024.0      126.00     0.34497    
1

 SOLVING FOR HEAD 

 OUTPUT CONTROL FOR STRESS PERIOD    3   TIME STEP   26
    SAVE HEAD FOR ALL LAYERS
    SAVE DRAWDOWN FOR ALL LAYERS
    SAVE BUDGET
    PRINT HEAD FOR ALL LAYERS
    PRINT BUDGET
 UBDSV1 SAVING "         STORAGE" ON UNIT  53 AT TIME STEP 26, STRESS PERIOD   3
 UBDSV2 SAVING "   CONSTANT HEAD" ON UNIT  53 AT TIME STEP 26, STRESS PERIOD   3
 UBDSV1 SAVING "FLOW RIGHT FACE " ON UNIT  53 AT TIME STEP 26, STRESS PERIOD   3
 UBDSV1 SAVING "FLOW FRONT FACE " ON UNIT  53 AT TIME STEP 26, STRESS PERIOD   3
1
              HEAD IN LAYER   1 AT END OF TIME STEP  26 IN STRESS PERIOD    3
  ---------------------------------------------------------------------------

            1           2           3           4           5           6           7           8           9          10
 ........................................................................................................................
   1    9.990       8.792       7.604       6.434       5.296       4.196       3.128       2.080       1.043      1.0325E-02
   2    9.990       8.783       7.583       6.401       5.255       4.163       3.106       2.068       1.037      1.0271E-02
   3    9.990       8.765       7.542       6.330       5.158       4.091       3.063       2.045       1.028      1.0179E-02
   4    9.990       8.745       7.490       6.217       4.955       3.977       3.009       2.021       1.019      1.0087E-02
   5    9.990       8.734       7.453       6.091       4.466       3.851       2.972       2.009       1.015      1.0051E-02
   6    9.990       8.748       7.496       6.226       4.965       3.986       3.017       2.027       1.022      1.0117E-02
   7    9.990       8.772       7.556       6.348       5.179       4.111       3.080       2.058       1.035      1.0243E-02
   8    9.990       8.795       7.605       6.432       5.289       4.196       3.134       2.087       1.048      1.0373E-02
   9    9.990       8.811       7.638       6.481       5.349       4.247       3.170       2.109       1.058      1.0473E-02
  10    9.990       8.819       7.654       6.504       5.375       4.270       3.188       2.120       1.063      1.0526E-02

 HEAD WILL BE SAVED ON UNIT   51 AT END OF TIME STEP   26, STRESS PERIOD    3

 DRAWDOWN WILL BE SAVED ON UNIT   52 AT END OF TIME STEP   26, STRESS PERIOD    3
1
  VOLUMETRIC BUDGET FOR ENTIRE MODEL AT END OF TIME STEP   26, STRESS PERIOD   3
  ------------------------------------------------------------------------------

     CUMULATIVE VOLUMES      L**3       RATES FOR THIS TIME STEP      L**3/T
     ------------------                 ------------------------

           IN:                                      IN:
           ---                                      ---
             STORAGE =       25945.7852               STORAGE =           6.5034
       CONSTANT HEAD =           0.0000         CONSTANT HEAD =           0.0000
               WELLS =           0.0000                 WELLS =           0.0000
     HEAD DEP BOUNDS =       63379.8984       HEAD DEP BOUNDS =         606.7335

            TOTAL IN =       89325.6875              TOTAL IN =         613.2368

          OUT:                                     OUT:
          ----                                     ----
             STORAGE =           0.0000               STORAGE =           0.0000
       CONSTANT HEAD =           0.0000         CONSTANT HEAD =           0.0000
               WELLS =        2600.0000                 WELLS =         100.0000
     HEAD DEP BOUNDS =       86726.0156       HEAD DEP BOUNDS =         513.2310

           TOTAL OUT =       89326.0156             TOTAL OUT =         613.2310

            IN - OUT =          -0.3281              IN - OUT =       5.8594E-03

 PERCENT DISCREPANCY =          -0.00     PERCENT DISCREPANCY =           0.00






         TIME SUMMARY AT END OF TIME STEP   26 IN STRESS PERIOD    3
                    SECONDS     MINUTES      HOURS       DAYS        YEARS
                    -----------------------------------------------------------
   TIME STEP LENGTH  86400.      1440.0      24.000      1.0000     2.73785E-03
 STRESS PERIOD TIME 2.24640E+06  37440.      624.00      26.000     7.11841E-02
         TOTAL TIME 1.09728E+07 1.82880E+05  3048.0      127.00     0.34771    
1

 SOLVING FOR HEAD 

 OUTPUT CONTROL FOR STRESS PERIOD    3   TIME STEP   27
    SAVE HEAD FOR ALL LAYERS
    SAVE DRAWDOWN FOR ALL LAYERS
    SAVE BUDGET
    PRINT HEAD FOR ALL LAYERS
    PRINT BUDGET
 UBDSV1 SAVING "         STORAGE" ON UNIT  53 AT TIME STEP 27, STRESS PERIOD   3
 UBDSV2 SAVING "   CONSTANT HEAD" ON UNIT  53 AT TIME STEP 27, STRESS PERIOD   3
 UBDSV1 SAVING "FLOW RIGHT FACE " ON UNIT  53 AT TIME STEP 27, STRESS PERIOD   3
 UBDSV1 SAVING "FLOW FRONT FACE " ON UNIT  53 AT TIME STEP 27, STRESS PERIOD   3
1
              HEAD IN LAYER   1 AT END OF TIME STEP  27 IN STRESS PERIOD    3
  ---------------------------------------------------------------------------

            1           2           3           4           5           6           7           8           9          10
 ........................................................................................................................
   1    9.990       8.792       7.602       6.433       5.294       4.194       3.126       2.079       1.042      1.0318E-02
   2    9.990       8.782       7.582       6.399       5.253       4.161       3.104       2.066       1.037      1.0264E-02
   3    9.990       8.764       7.541       6.328       5.156       4.089       3.061       2.044       1.027      1.0172E-02
   4    9.990       8.744       7.488       6.215       4.953       3.975       3.007       2.019       1.018      1.0080E-02
   5    9.990       8.733       7.452       6.089       4.464       3.849       2.970       2.008       1.014      1.0044E-02
   6    9.990       8.748       7.495       6.224       4.963       3.984       3.015       2.025       1.021      1.0110E-02
   7    9.990       8.772       7.555       6.347       5.177       4.109       3.078       2.056       1.034      1.0236E-02
   8    9.990       8.794       7.604       6.430       5.287       4.194       3.132       2.086       1.047      1.0367E-02
   9    9.990       8.810       7.637       6.479       5.347       4.245       3.168       2.108       1.057      1.0467E-02
  10    9.990       8.818       7.653       6.502       5.373       4.269       3.186       2.119       1.063      1.0520E-02

 HEAD WILL BE SAVED ON UNIT   51 AT END OF TIME STEP   27, STRESS PERIOD    3

 DRAWDOWN WILL BE SAVED ON UNIT   52 AT END OF TIME STEP   27, STRESS PERIOD    3
1
  VOLUMETRIC BUDGET FOR ENTIRE MODEL AT END OF TIME STEP   27, STRESS PERIOD   3
  ------------------------------------------------------------------------------

     CUMULATIVE VOLUMES      L**3       RATES FOR THIS TIME STEP      L**3/T
     ------------------                 ------------------------

           IN:                                      IN:
           ---                                      ---
             STORAGE =       25951.5898               STORAGE =           5.8055
       CONSTANT HEAD =           0.0000         CONSTANT HEAD =           0.0000
               WELLS =           0.0000                 WELLS =           0.0000
     HEAD DEP BOUNDS =       63986.9766       HEAD DEP BOUNDS =         607.0792

            TOTAL IN =       89938.5625              TOTAL IN =         612.8846

          OUT:                                     OUT:
          ----                                     ----
             STORAGE =           0.0000               STORAGE =           0.0000
       CONSTANT HEAD =           0.0000         CONSTANT HEAD =           0.0000
               WELLS =        2700.0000                 WELLS =         100.0000
     HEAD DEP BOUNDS =       87238.8984       HEAD DEP BOUNDS =         512.8823

           TOTAL OUT =       89938.8984             TOTAL OUT =         612.8823

            IN - OUT =          -0.3359              IN - OUT =       2.3193E-03

 PERCENT DISCREPANCY =          -0.00     PERCENT DISCREPANCY =           0.00






         TIME SUMMARY AT END OF TIME STEP   27 IN STRESS PERIOD    3
                    SECONDS     MINUTES      HOURS       DAYS        YEARS
                    -----------------------------------------------------------
   TIME STEP LENGTH  86400.      1440.0      24.000      1.0000     2.73785E-03
 STRESS PERIOD TIME 2.33280E+06  38880.      648.00      27.000     7.39220E-02
         TOTAL TIME 1.10592E+07 1.84320E+05  3072.0      128.00     0.35044    
1

 SOLVING FOR HEAD 

 OUTPUT CONTROL FOR STRESS PERIOD    3   TIME STEP   28
    SAVE HEAD FOR ALL LAYERS
    SAVE DRAWDOWN FOR ALL LAYERS
    SAVE BUDGET
    PRINT HEAD FOR ALL LAYERS
    PRINT BUDGET
 UBDSV1 SAVING "         STORAGE" ON UNIT  53 AT TIME STEP 28, STRESS PERIOD   3
 UBDSV2 SAVING "   CONSTANT HEAD" ON UNIT  53 AT TIME STEP 28, STRESS PERIOD   3
 UBDSV1 SAVING "FLOW RIGHT FACE " ON UNIT  53 AT TIME STEP 28, STRESS PERIOD   3
 UBDSV1 SAVING "FLOW FRONT FACE " ON UNIT  53 AT TIME STEP 28, STRESS PERIOD   3
1
              HEAD IN LAYER   1 AT END OF TIME STEP  28 IN STRESS PERIOD    3
  ---------------------------------------------------------------------------

            1           2           3           4           5           6           7           8           9          10
 ........................................................................................................................
   1    9.990       8.791       7.601       6.431       5.292       4.193       3.125       2.077       1.041      1.0311E-02
   2    9.990       8.781       7.580       6.398       5.251       4.159       3.102       2.065       1.036      1.0257E-02
   3    9.990       8.764       7.540       6.327       5.155       4.087       3.060       2.043       1.027      1.0166E-02
   4    9.990       8.744       7.487       6.214       4.951       3.973       3.005       2.018       1.017      1.0073E-02
   5    9.990       8.733       7.451       6.088       4.462       3.847       2.968       2.006       1.014      1.0038E-02
   6    9.990       8.747       7.494       6.222       4.961       3.983       3.013       2.024       1.020      1.0104E-02
   7    9.990       8.771       7.554       6.345       5.175       4.107       3.077       2.055       1.033      1.0230E-02
   8    9.990       8.794       7.603       6.428       5.285       4.192       3.130       2.085       1.046      1.0361E-02
   9    9.990       8.809       7.636       6.478       5.345       4.243       3.167       2.107       1.057      1.0461E-02
  10    9.990       8.817       7.652       6.501       5.371       4.267       3.184       2.118       1.062      1.0514E-02

 HEAD WILL BE SAVED ON UNIT   51 AT END OF TIME STEP   28, STRESS PERIOD    3

 DRAWDOWN WILL BE SAVED ON UNIT   52 AT END OF TIME STEP   28, STRESS PERIOD    3
1
  VOLUMETRIC BUDGET FOR ENTIRE MODEL AT END OF TIME STEP   28, STRESS PERIOD   3
  ------------------------------------------------------------------------------

     CUMULATIVE VOLUMES      L**3       RATES FOR THIS TIME STEP      L**3/T
     ------------------                 ------------------------

           IN:                                      IN:
           ---                                      ---
             STORAGE =       25956.7734               STORAGE =           5.1832
       CONSTANT HEAD =           0.0000         CONSTANT HEAD =           0.0000
               WELLS =           0.0000                 WELLS =           0.0000
     HEAD DEP BOUNDS =       64594.3672       HEAD DEP BOUNDS =         607.3915

            TOTAL IN =       90551.1406              TOTAL IN =         612.5748

          OUT:                                     OUT:
          ----                                     ----
             STORAGE =           0.0000               STORAGE =           0.0000
       CONSTANT HEAD =           0.0000         CONSTANT HEAD =           0.0000
               WELLS =        2800.0000                 WELLS =         100.0000
     HEAD DEP BOUNDS =       87751.4688       HEAD DEP BOUNDS =         512.5711

           TOTAL OUT =       90551.4688             TOTAL OUT =         612.5711

            IN - OUT =          -0.3281              IN - OUT =       3.6621E-03

 PERCENT DISCREPANCY =          -0.00     PERCENT DISCREPANCY =           0.00






         TIME SUMMARY AT END OF TIME STEP   28 IN STRESS PERIOD    3
                    SECONDS     MINUTES      HOURS       DAYS        YEARS
                    -----------------------------------------------------------
   TIME STEP LENGTH  86400.      1440.0      24.000      1.0000     2.73785E-03
 STRESS PERIOD TIME 2.41920E+06  40320.      672.00      28.000     7.66598E-02
         TOTAL TIME 1.11456E+07 1.85760E+05  3096.0      129.00     0.35318    
1

 SOLVING FOR HEAD 

 OUTPUT CONTROL FOR STRESS PERIOD    3   TIME STEP   29
    SAVE HEAD FOR ALL LAYERS
    SAVE DRAWDOWN FOR ALL LAYERS
    SAVE BUDGET
    PRINT HEAD FOR ALL LAYERS
    PRINT BUDGET
 UBDSV1 SAVING "         STORAGE" ON UNIT  53 AT TIME STEP 29, STRESS PERIOD   3
 UBDSV2 SAVING "   CONSTANT HEAD" ON UNIT  53 AT TIME STEP 29, STRESS PERIOD   3
 UBDSV1 SAVING "FLOW RIGHT FACE " ON UNIT  53 AT TIME STEP 29, STRESS PERIOD   3
 UBDSV1 SAVING "FLOW FRONT FACE " ON UNIT  53 AT TIME STEP 29, STRESS PERIOD   3
1
              HEAD IN LAYER   1 AT END OF TIME STEP  29 IN STRESS PERIOD    3
  ---------------------------------------------------------------------------

            1           2           3           4           5           6           7           8           9          10
 ........................................................................................................................
   1    9.990       8.791       7.600       6.429       5.291       4.191       3.123       2.076       1.041      1.0305E-02
   2    9.990       8.781       7.579       6.396       5.250       4.157       3.101       2.064       1.035      1.0252E-02
   3    9.990       8.763       7.539       6.325       5.153       4.085       3.058       2.042       1.026      1.0160E-02
   4    9.990       8.743       7.486       6.212       4.950       3.972       3.004       2.017       1.017      1.0068E-02
   5    9.990       8.732       7.450       6.086       4.461       3.845       2.967       2.005       1.013      1.0032E-02
   6    9.990       8.746       7.493       6.221       4.959       3.981       3.012       2.023       1.020      1.0099E-02
   7    9.990       8.771       7.552       6.344       5.174       4.105       3.076       2.054       1.033      1.0224E-02
   8    9.990       8.793       7.602       6.427       5.284       4.190       3.129       2.084       1.046      1.0355E-02
   9    9.990       8.809       7.635       6.476       5.343       4.241       3.165       2.106       1.056      1.0455E-02
  10    9.990       8.817       7.651       6.499       5.370       4.265       3.183       2.117       1.061      1.0508E-02

 HEAD WILL BE SAVED ON UNIT   51 AT END OF TIME STEP   29, STRESS PERIOD    3

 DRAWDOWN WILL BE SAVED ON UNIT   52 AT END OF TIME STEP   29, STRESS PERIOD    3
1
  VOLUMETRIC BUDGET FOR ENTIRE MODEL AT END OF TIME STEP   29, STRESS PERIOD   3
  ------------------------------------------------------------------------------

     CUMULATIVE VOLUMES      L**3       RATES FOR THIS TIME STEP      L**3/T
     ------------------                 ------------------------

           IN:                                      IN:
           ---                                      ---
             STORAGE =       25961.4004               STORAGE =           4.6270
       CONSTANT HEAD =           0.0000         CONSTANT HEAD =           0.0000
               WELLS =           0.0000                 WELLS =           0.0000
     HEAD DEP BOUNDS =       65202.0391       HEAD DEP BOUNDS =         607.6708

            TOTAL IN =       91163.4375              TOTAL IN =         612.2979

          OUT:                                     OUT:
          ----                                     ----
             STORAGE =           0.0000               STORAGE =           0.0000
       CONSTANT HEAD =           0.0000         CONSTANT HEAD =           0.0000
               WELLS =        2900.0000                 WELLS =         100.0000
     HEAD DEP BOUNDS =       88263.7656       HEAD DEP BOUNDS =         512.2932

           TOTAL OUT =       91163.7656             TOTAL OUT =         612.2932

            IN - OUT =          -0.3281              IN - OUT =       4.6387E-03

 PERCENT DISCREPANCY =          -0.00     PERCENT DISCREPANCY =           0.00






         TIME SUMMARY AT END OF TIME STEP   29 IN STRESS PERIOD    3
                    SECONDS     MINUTES      HOURS       DAYS        YEARS
                    -----------------------------------------------------------
   TIME STEP LENGTH  86400.      1440.0      24.000      1.0000     2.73785E-03
 STRESS PERIOD TIME 2.50560E+06  41760.      696.00      29.000     7.93977E-02
         TOTAL TIME 1.12320E+07 1.87200E+05  3120.0      130.00     0.35592    
1

 SOLVING FOR HEAD 

 OUTPUT CONTROL FOR STRESS PERIOD    3   TIME STEP   30
    SAVE HEAD FOR ALL LAYERS
    SAVE DRAWDOWN FOR ALL LAYERS
    SAVE BUDGET
    PRINT HEAD FOR ALL LAYERS
    PRINT BUDGET
 UBDSV1 SAVING "         STORAGE" ON UNIT  53 AT TIME STEP 30, STRESS PERIOD   3
 UBDSV2 SAVING "   CONSTANT HEAD" ON UNIT  53 AT TIME STEP 30, STRESS PERIOD   3
 UBDSV1 SAVING "FLOW RIGHT FACE " ON UNIT  53 AT TIME STEP 30, STRESS PERIOD   3
 UBDSV1 SAVING "FLOW FRONT FACE " ON UNIT  53 AT TIME STEP 30, STRESS PERIOD   3
1
              HEAD IN LAYER   1 AT END OF TIME STEP  30 IN STRESS PERIOD    3
  ---------------------------------------------------------------------------

            1           2           3           4           5           6           7           8           9          10
 ........................................................................................................................
   1    9.990       8.790       7.599       6.428       5.289       4.189       3.122       2.075       1.040      1.0300E-02
   2    9.990       8.780       7.578       6.395       5.248       4.156       3.100       2.063       1.035      1.0246E-02
   3    9.990       8.763       7.538       6.324       5.152       4.084       3.057       2.041       1.026      1.0155E-02
   4    9.990       8.742       7.485       6.211       4.948       3.970       3.003       2.016       1.016      1.0063E-02
   5    9.990       8.732       7.449       6.085       4.459       3.844       2.966       2.004       1.013      1.0027E-02
   6    9.990       8.746       7.492       6.220       4.958       3.980       3.011       2.022       1.019      1.0094E-02
   7    9.990       8.770       7.552       6.343       5.172       4.104       3.074       2.053       1.032      1.0220E-02
   8    9.990       8.792       7.601       6.426       5.283       4.189       3.128       2.083       1.045      1.0350E-02
   9    9.990       8.808       7.634       6.475       5.342       4.240       3.164       2.105       1.056      1.0450E-02
  10    9.990       8.816       7.650       6.498       5.368       4.264       3.182       2.116       1.061      1.0503E-02

 HEAD WILL BE SAVED ON UNIT   51 AT END OF TIME STEP   30, STRESS PERIOD    3

 DRAWDOWN WILL BE SAVED ON UNIT   52 AT END OF TIME STEP   30, STRESS PERIOD    3
1
  VOLUMETRIC BUDGET FOR ENTIRE MODEL AT END OF TIME STEP   30, STRESS PERIOD   3
  ------------------------------------------------------------------------------

     CUMULATIVE VOLUMES      L**3       RATES FOR THIS TIME STEP      L**3/T
     ------------------                 ------------------------

           IN:                                      IN:
           ---                                      ---
             STORAGE =       25965.5312               STORAGE =           4.1310
       CONSTANT HEAD =           0.0000         CONSTANT HEAD =           0.0000
               WELLS =           0.0000                 WELLS =           0.0000
     HEAD DEP BOUNDS =       65809.9531       HEAD DEP BOUNDS =         607.9167

            TOTAL IN =       91775.4844              TOTAL IN =         612.0477

          OUT:                                     OUT:
          ----                                     ----
             STORAGE =           0.0000               STORAGE =           0.0000
       CONSTANT HEAD =           0.0000         CONSTANT HEAD =           0.0000
               WELLS =        3000.0000                 WELLS =         100.0000
     HEAD DEP BOUNDS =       88775.8125       HEAD DEP BOUNDS =         512.0451

           TOTAL OUT =       91775.8125             TOTAL OUT =         612.0451

            IN - OUT =          -0.3281              IN - OUT =       2.6245E-03

 PERCENT DISCREPANCY =          -0.00     PERCENT DISCREPANCY =           0.00






         TIME SUMMARY AT END OF TIME STEP   30 IN STRESS PERIOD    3
                    SECONDS     MINUTES      HOURS       DAYS        YEARS
                    -----------------------------------------------------------
   TIME STEP LENGTH  86400.      1440.0      24.000      1.0000     2.73785E-03
 STRESS PERIOD TIME 2.59200E+06  43200.      720.00      30.000     8.21355E-02
         TOTAL TIME 1.13184E+07 1.88640E+05  3144.0      131.00     0.35866    
1

 SOLVING FOR HEAD 

 OUTPUT CONTROL FOR STRESS PERIOD    3   TIME STEP   31
    SAVE HEAD FOR ALL LAYERS
    SAVE DRAWDOWN FOR ALL LAYERS
    SAVE BUDGET
    PRINT HEAD FOR ALL LAYERS
    PRINT BUDGET
 UBDSV1 SAVING "         STORAGE" ON UNIT  53 AT TIME STEP 31, STRESS PERIOD   3
 UBDSV2 SAVING "   CONSTANT HEAD" ON UNIT  53 AT TIME STEP 31, STRESS PERIOD   3
 UBDSV1 SAVING "FLOW RIGHT FACE " ON UNIT  53 AT TIME STEP 31, STRESS PERIOD   3
 UBDSV1 SAVING "FLOW FRONT FACE " ON UNIT  53 AT TIME STEP 31, STRESS PERIOD   3
1
              HEAD IN LAYER   1 AT END OF TIME STEP  31 IN STRESS PERIOD    3
  ---------------------------------------------------------------------------

            1           2           3           4           5           6           7           8           9          10
 ........................................................................................................................
   1    9.990       8.790       7.598       6.427       5.288       4.188       3.121       2.075       1.040      1.0296E-02
   2    9.990       8.780       7.578       6.394       5.247       4.154       3.099       2.062       1.034      1.0242E-02
   3    9.990       8.762       7.537       6.323       5.150       4.083       3.056       2.040       1.025      1.0150E-02
   4    9.990       8.742       7.484       6.210       4.947       3.969       3.001       2.015       1.016      1.0058E-02
   5    9.990       8.731       7.448       6.084       4.458       3.843       2.965       2.004       1.012      1.0023E-02
   6    9.990       8.745       7.491       6.218       4.957       3.978       3.010       2.021       1.019      1.0089E-02
   7    9.990       8.770       7.551       6.341       5.171       4.103       3.073       2.052       1.032      1.0215E-02
   8    9.990       8.792       7.600       6.425       5.281       4.188       3.127       2.082       1.045      1.0346E-02
   9    9.990       8.808       7.633       6.474       5.341       4.239       3.163       2.104       1.055      1.0446E-02
  10    9.990       8.816       7.649       6.497       5.367       4.263       3.181       2.115       1.060      1.0499E-02

 HEAD WILL BE SAVED ON UNIT   51 AT END OF TIME STEP   31, STRESS PERIOD    3

 DRAWDOWN WILL BE SAVED ON UNIT   52 AT END OF TIME STEP   31, STRESS PERIOD    3
1
  VOLUMETRIC BUDGET FOR ENTIRE MODEL AT END OF TIME STEP   31, STRESS PERIOD   3
  ------------------------------------------------------------------------------

     CUMULATIVE VOLUMES      L**3       RATES FOR THIS TIME STEP      L**3/T
     ------------------                 ------------------------

           IN:                                      IN:
           ---                                      ---
             STORAGE =       25969.2188               STORAGE =           3.6877
       CONSTANT HEAD =           0.0000         CONSTANT HEAD =           0.0000
               WELLS =           0.0000                 WELLS =           0.0000
     HEAD DEP BOUNDS =       66418.0859       HEAD DEP BOUNDS =         608.1362

            TOTAL IN =       92387.3047              TOTAL IN =         611.8239

          OUT:                                     OUT:
          ----                                     ----
             STORAGE =           0.0000               STORAGE =           0.0000
       CONSTANT HEAD =           0.0000         CONSTANT HEAD =           0.0000
               WELLS =        3100.0000                 WELLS =         100.0000
     HEAD DEP BOUNDS =       89287.6328       HEAD DEP BOUNDS =         511.8236

           TOTAL OUT =       92387.6328             TOTAL OUT =         611.8236

            IN - OUT =          -0.3281              IN - OUT =       3.0518E-04

 PERCENT DISCREPANCY =          -0.00     PERCENT DISCREPANCY =           0.00






         TIME SUMMARY AT END OF TIME STEP   31 IN STRESS PERIOD    3
                    SECONDS     MINUTES      HOURS       DAYS        YEARS
                    -----------------------------------------------------------
   TIME STEP LENGTH  86400.      1440.0      24.000      1.0000     2.73785E-03
 STRESS PERIOD TIME 2.67840E+06  44640.      744.00      31.000     8.48734E-02
         TOTAL TIME 1.14048E+07 1.90080E+05  3168.0      132.00     0.36140    
1

 SOLVING FOR HEAD 

 OUTPUT CONTROL FOR STRESS PERIOD    3   TIME STEP   32
    SAVE HEAD FOR ALL LAYERS
    SAVE DRAWDOWN FOR ALL LAYERS
    SAVE BUDGET
    PRINT HEAD FOR ALL LAYERS
    PRINT BUDGET
 UBDSV1 SAVING "         STORAGE" ON UNIT  53 AT TIME STEP 32, STRESS PERIOD   3
 UBDSV2 SAVING "   CONSTANT HEAD" ON UNIT  53 AT TIME STEP 32, STRESS PERIOD   3
 UBDSV1 SAVING "FLOW RIGHT FACE " ON UNIT  53 AT TIME STEP 32, STRESS PERIOD   3
 UBDSV1 SAVING "FLOW FRONT FACE " ON UNIT  53 AT TIME STEP 32, STRESS PERIOD   3
1
              HEAD IN LAYER   1 AT END OF TIME STEP  32 IN STRESS PERIOD    3
  ---------------------------------------------------------------------------

            1           2           3           4           5           6           7           8           9          10
 ........................................................................................................................
   1    9.990       8.789       7.598       6.426       5.287       4.187       3.120       2.074       1.040      1.0292E-02
   2    9.990       8.780       7.577       6.393       5.246       4.153       3.098       2.061       1.034      1.0238E-02
   3    9.990       8.762       7.536       6.322       5.149       4.081       3.055       2.039       1.025      1.0146E-02
   4    9.990       8.742       7.484       6.209       4.946       3.968       3.000       2.015       1.015      1.0054E-02
   5    9.990       8.731       7.447       6.083       4.457       3.842       2.964       2.003       1.012      1.0019E-02
   6    9.990       8.745       7.490       6.217       4.956       3.977       3.009       2.021       1.019      1.0085E-02
   7    9.990       8.769       7.550       6.340       5.170       4.102       3.072       2.052       1.031      1.0211E-02
   8    9.990       8.792       7.600       6.424       5.280       4.187       3.126       2.081       1.045      1.0342E-02
   9    9.990       8.807       7.632       6.473       5.340       4.238       3.162       2.103       1.055      1.0442E-02
  10    9.990       8.815       7.648       6.496       5.366       4.261       3.180       2.115       1.060      1.0495E-02

 HEAD WILL BE SAVED ON UNIT   51 AT END OF TIME STEP   32, STRESS PERIOD    3

 DRAWDOWN WILL BE SAVED ON UNIT   52 AT END OF TIME STEP   32, STRESS PERIOD    3
1
  VOLUMETRIC BUDGET FOR ENTIRE MODEL AT END OF TIME STEP   32, STRESS PERIOD   3
  ------------------------------------------------------------------------------

     CUMULATIVE VOLUMES      L**3       RATES FOR THIS TIME STEP      L**3/T
     ------------------                 ------------------------

           IN:                                      IN:
           ---                                      ---
             STORAGE =       25972.5117               STORAGE =           3.2924
       CONSTANT HEAD =           0.0000         CONSTANT HEAD =           0.0000
               WELLS =           0.0000                 WELLS =           0.0000
     HEAD DEP BOUNDS =       67026.4219       HEAD DEP BOUNDS =         608.3322

            TOTAL IN =       92998.9375              TOTAL IN =         611.6246

          OUT:                                     OUT:
          ----                                     ----
             STORAGE =           0.0000               STORAGE =           0.0000
       CONSTANT HEAD =           0.0000         CONSTANT HEAD =           0.0000
               WELLS =        3200.0000                 WELLS =         100.0000
     HEAD DEP BOUNDS =       89799.2578       HEAD DEP BOUNDS =         511.6259

           TOTAL OUT =       92999.2578             TOTAL OUT =         611.6259

            IN - OUT =          -0.3203              IN - OUT =      -1.2817E-03

 PERCENT DISCREPANCY =          -0.00     PERCENT DISCREPANCY =          -0.00






         TIME SUMMARY AT END OF TIME STEP   32 IN STRESS PERIOD    3
                    SECONDS     MINUTES      HOURS       DAYS        YEARS
                    -----------------------------------------------------------
   TIME STEP LENGTH  86400.      1440.0      24.000      1.0000     2.73785E-03
 STRESS PERIOD TIME 2.76480E+06  46080.      768.00      32.000     8.76112E-02
         TOTAL TIME 1.14912E+07 1.91520E+05  3192.0      133.00     0.36413    
1

 SOLVING FOR HEAD 

 OUTPUT CONTROL FOR STRESS PERIOD    3   TIME STEP   33
    SAVE HEAD FOR ALL LAYERS
    SAVE DRAWDOWN FOR ALL LAYERS
    SAVE BUDGET
    PRINT HEAD FOR ALL LAYERS
    PRINT BUDGET
 UBDSV1 SAVING "         STORAGE" ON UNIT  53 AT TIME STEP 33, STRESS PERIOD   3
 UBDSV2 SAVING "   CONSTANT HEAD" ON UNIT  53 AT TIME STEP 33, STRESS PERIOD   3
 UBDSV1 SAVING "FLOW RIGHT FACE " ON UNIT  53 AT TIME STEP 33, STRESS PERIOD   3
 UBDSV1 SAVING "FLOW FRONT FACE " ON UNIT  53 AT TIME STEP 33, STRESS PERIOD   3
1
              HEAD IN LAYER   1 AT END OF TIME STEP  33 IN STRESS PERIOD    3
  ---------------------------------------------------------------------------

            1           2           3           4           5           6           7           8           9          10
 ........................................................................................................................
   1    9.990       8.789       7.597       6.425       5.286       4.186       3.119       2.073       1.039      1.0288E-02
   2    9.990       8.779       7.576       6.392       5.245       4.152       3.097       2.061       1.034      1.0234E-02
   3    9.990       8.762       7.536       6.321       5.148       4.080       3.054       2.038       1.024      1.0143E-02
   4    9.990       8.741       7.483       6.208       4.945       3.967       3.000       2.014       1.015      1.0051E-02
   5    9.990       8.731       7.446       6.082       4.456       3.841       2.963       2.002       1.011      1.0015E-02
   6    9.990       8.745       7.489       6.217       4.955       3.976       3.008       2.020       1.018      1.0082E-02
   7    9.990       8.769       7.549       6.340       5.169       4.101       3.071       2.051       1.031      1.0208E-02
   8    9.990       8.791       7.599       6.423       5.279       4.186       3.125       2.081       1.044      1.0338E-02
   9    9.990       8.807       7.632       6.472       5.339       4.237       3.161       2.103       1.054      1.0439E-02
  10    9.990       8.815       7.648       6.495       5.365       4.260       3.179       2.114       1.060      1.0492E-02

 HEAD WILL BE SAVED ON UNIT   51 AT END OF TIME STEP   33, STRESS PERIOD    3

 DRAWDOWN WILL BE SAVED ON UNIT   52 AT END OF TIME STEP   33, STRESS PERIOD    3
1
  VOLUMETRIC BUDGET FOR ENTIRE MODEL AT END OF TIME STEP   33, STRESS PERIOD   3
  ------------------------------------------------------------------------------

     CUMULATIVE VOLUMES      L**3       RATES FOR THIS TIME STEP      L**3/T
     ------------------                 ------------------------

           IN:                                      IN:
           ---                                      ---
             STORAGE =       25975.4512               STORAGE =           2.9392
       CONSTANT HEAD =           0.0000         CONSTANT HEAD =           0.0000
               WELLS =           0.0000                 WELLS =           0.0000
     HEAD DEP BOUNDS =       67634.9297       HEAD DEP BOUNDS =         608.5071

            TOTAL IN =       93610.3828              TOTAL IN =         611.4463

          OUT:                                     OUT:
          ----                                     ----
             STORAGE =           0.0000               STORAGE =           0.0000
       CONSTANT HEAD =           0.0000         CONSTANT HEAD =           0.0000
               WELLS =        3300.0000                 WELLS =         100.0000
     HEAD DEP BOUNDS =       90310.7109       HEAD DEP BOUNDS =         511.4493

           TOTAL OUT =       93610.7109             TOTAL OUT =         611.4493

            IN - OUT =          -0.3281              IN - OUT =      -3.0518E-03

 PERCENT DISCREPANCY =          -0.00     PERCENT DISCREPANCY =          -0.00






         TIME SUMMARY AT END OF TIME STEP   33 IN STRESS PERIOD    3
                    SECONDS     MINUTES      HOURS       DAYS        YEARS
                    -----------------------------------------------------------
   TIME STEP LENGTH  86400.      1440.0      24.000      1.0000     2.73785E-03
 STRESS PERIOD TIME 2.85120E+06  47520.      792.00      33.000     9.03491E-02
         TOTAL TIME 1.15776E+07 1.92960E+05  3216.0      134.00     0.36687    
1

 SOLVING FOR HEAD 

 OUTPUT CONTROL FOR STRESS PERIOD    3   TIME STEP   34
    SAVE HEAD FOR ALL LAYERS
    SAVE DRAWDOWN FOR ALL LAYERS
    SAVE BUDGET
    PRINT HEAD FOR ALL LAYERS
    PRINT BUDGET
 UBDSV1 SAVING "         STORAGE" ON UNIT  53 AT TIME STEP 34, STRESS PERIOD   3
 UBDSV2 SAVING "   CONSTANT HEAD" ON UNIT  53 AT TIME STEP 34, STRESS PERIOD   3
 UBDSV1 SAVING "FLOW RIGHT FACE " ON UNIT  53 AT TIME STEP 34, STRESS PERIOD   3
 UBDSV1 SAVING "FLOW FRONT FACE " ON UNIT  53 AT TIME STEP 34, STRESS PERIOD   3
1
              HEAD IN LAYER   1 AT END OF TIME STEP  34 IN STRESS PERIOD    3
  ---------------------------------------------------------------------------

            1           2           3           4           5           6           7           8           9          10
 ........................................................................................................................
   1    9.990       8.788       7.596       6.424       5.285       4.185       3.118       2.073       1.039      1.0285E-02
   2    9.990       8.779       7.575       6.391       5.244       4.151       3.096       2.060       1.033      1.0231E-02
   3    9.990       8.761       7.535       6.320       5.147       4.080       3.053       2.038       1.024      1.0140E-02
   4    9.990       8.741       7.482       6.207       4.944       3.966       2.999       2.013       1.015      1.0048E-02
   5    9.990       8.730       7.446       6.081       4.455       3.840       2.962       2.002       1.011      1.0012E-02
   6    9.990       8.744       7.489       6.216       4.954       3.975       3.007       2.019       1.018      1.0079E-02
   7    9.990       8.769       7.549       6.339       5.168       4.100       3.070       2.050       1.031      1.0205E-02
   8    9.990       8.791       7.598       6.422       5.278       4.185       3.124       2.080       1.044      1.0335E-02
   9    9.990       8.807       7.631       6.471       5.338       4.236       3.160       2.102       1.054      1.0436E-02
  10    9.990       8.815       7.647       6.494       5.364       4.260       3.178       2.113       1.059      1.0489E-02

 HEAD WILL BE SAVED ON UNIT   51 AT END OF TIME STEP   34, STRESS PERIOD    3

 DRAWDOWN WILL BE SAVED ON UNIT   52 AT END OF TIME STEP   34, STRESS PERIOD    3
1
  VOLUMETRIC BUDGET FOR ENTIRE MODEL AT END OF TIME STEP   34, STRESS PERIOD   3
  ------------------------------------------------------------------------------

     CUMULATIVE VOLUMES      L**3       RATES FOR THIS TIME STEP      L**3/T
     ------------------                 ------------------------

           IN:                                      IN:
           ---                                      ---
             STORAGE =       25978.0742               STORAGE =           2.6238
       CONSTANT HEAD =           0.0000         CONSTANT HEAD =           0.0000
               WELLS =           0.0000                 WELLS =           0.0000
     HEAD DEP BOUNDS =       68243.5938       HEAD DEP BOUNDS =         608.6633

            TOTAL IN =       94221.6719              TOTAL IN =         611.2872

          OUT:                                     OUT:
          ----                                     ----
             STORAGE =           0.0000               STORAGE =           0.0000
       CONSTANT HEAD =           0.0000         CONSTANT HEAD =           0.0000
               WELLS =        3400.0000                 WELLS =         100.0000
     HEAD DEP BOUNDS =       90822.0000       HEAD DEP BOUNDS =         511.2917

           TOTAL OUT =       94222.0000             TOTAL OUT =         611.2917

            IN - OUT =          -0.3281              IN - OUT =      -4.5166E-03

 PERCENT DISCREPANCY =          -0.00     PERCENT DISCREPANCY =          -0.00






         TIME SUMMARY AT END OF TIME STEP   34 IN STRESS PERIOD    3
                    SECONDS     MINUTES      HOURS       DAYS        YEARS
                    -----------------------------------------------------------
   TIME STEP LENGTH  86400.      1440.0      24.000      1.0000     2.73785E-03
 STRESS PERIOD TIME 2.93760E+06  48960.      816.00      34.000     9.30869E-02
         TOTAL TIME 1.16640E+07 1.94400E+05  3240.0      135.00     0.36961    
1

 SOLVING FOR HEAD 

 OUTPUT CONTROL FOR STRESS PERIOD    3   TIME STEP   35
    SAVE HEAD FOR ALL LAYERS
    SAVE DRAWDOWN FOR ALL LAYERS
    SAVE BUDGET
    PRINT HEAD FOR ALL LAYERS
    PRINT BUDGET
 UBDSV1 SAVING "         STORAGE" ON UNIT  53 AT TIME STEP 35, STRESS PERIOD   3
 UBDSV2 SAVING "   CONSTANT HEAD" ON UNIT  53 AT TIME STEP 35, STRESS PERIOD   3
 UBDSV1 SAVING "FLOW RIGHT FACE " ON UNIT  53 AT TIME STEP 35, STRESS PERIOD   3
 UBDSV1 SAVING "FLOW FRONT FACE " ON UNIT  53 AT TIME STEP 35, STRESS PERIOD   3
1
              HEAD IN LAYER   1 AT END OF TIME STEP  35 IN STRESS PERIOD    3
  ---------------------------------------------------------------------------

            1           2           3           4           5           6           7           8           9          10
 ........................................................................................................................
   1    9.990       8.788       7.596       6.424       5.284       4.184       3.117       2.072       1.039      1.0282E-02
   2    9.990       8.779       7.575       6.390       5.243       4.150       3.095       2.059       1.033      1.0228E-02
   3    9.990       8.761       7.534       6.320       5.146       4.079       3.052       2.037       1.024      1.0137E-02
   4    9.990       8.741       7.482       6.206       4.943       3.965       2.998       2.013       1.014      1.0045E-02
   5    9.990       8.730       7.445       6.080       4.454       3.839       2.961       2.001       1.011      1.0009E-02
   6    9.990       8.744       7.488       6.215       4.953       3.974       3.006       2.019       1.018      1.0076E-02
   7    9.990       8.768       7.548       6.338       5.167       4.099       3.070       2.050       1.030      1.0202E-02
   8    9.990       8.791       7.598       6.421       5.277       4.184       3.123       2.080       1.044      1.0333E-02
   9    9.990       8.807       7.630       6.471       5.337       4.235       3.159       2.102       1.054      1.0433E-02
  10    9.990       8.814       7.646       6.494       5.363       4.259       3.177       2.113       1.059      1.0486E-02

 HEAD WILL BE SAVED ON UNIT   51 AT END OF TIME STEP   35, STRESS PERIOD    3

 DRAWDOWN WILL BE SAVED ON UNIT   52 AT END OF TIME STEP   35, STRESS PERIOD    3
1
  VOLUMETRIC BUDGET FOR ENTIRE MODEL AT END OF TIME STEP   35, STRESS PERIOD   3
  ------------------------------------------------------------------------------

     CUMULATIVE VOLUMES      L**3       RATES FOR THIS TIME STEP      L**3/T
     ------------------                 ------------------------

           IN:                                      IN:
           ---                                      ---
             STORAGE =       25980.4160               STORAGE =           2.3425
       CONSTANT HEAD =           0.0000         CONSTANT HEAD =           0.0000
               WELLS =           0.0000                 WELLS =           0.0000
     HEAD DEP BOUNDS =       68852.3984       HEAD DEP BOUNDS =         608.8027

            TOTAL IN =       94832.8125              TOTAL IN =         611.1453

          OUT:                                     OUT:
          ----                                     ----
             STORAGE =           0.0000               STORAGE =           0.0000
       CONSTANT HEAD =           0.0000         CONSTANT HEAD =           0.0000
               WELLS =        3500.0000                 WELLS =         100.0000
     HEAD DEP BOUNDS =       91333.1484       HEAD DEP BOUNDS =         511.1510

           TOTAL OUT =       94833.1484             TOTAL OUT =         611.1510

            IN - OUT =          -0.3359              IN - OUT =      -5.7373E-03

 PERCENT DISCREPANCY =          -0.00     PERCENT DISCREPANCY =          -0.00






         TIME SUMMARY AT END OF TIME STEP   35 IN STRESS PERIOD    3
                    SECONDS     MINUTES      HOURS       DAYS        YEARS
                    -----------------------------------------------------------
   TIME STEP LENGTH  86400.      1440.0      24.000      1.0000     2.73785E-03
 STRESS PERIOD TIME 3.02400E+06  50400.      840.00      35.000     9.58248E-02
         TOTAL TIME 1.17504E+07 1.95840E+05  3264.0      136.00     0.37235    
1

 SOLVING FOR HEAD 

 OUTPUT CONTROL FOR STRESS PERIOD    3   TIME STEP   36
    SAVE HEAD FOR ALL LAYERS
    SAVE DRAWDOWN FOR ALL LAYERS
    SAVE BUDGET
    PRINT HEAD FOR ALL LAYERS
    PRINT BUDGET
 UBDSV1 SAVING "         STORAGE" ON UNIT  53 AT TIME STEP 36, STRESS PERIOD   3
 UBDSV2 SAVING "   CONSTANT HEAD" ON UNIT  53 AT TIME STEP 36, STRESS PERIOD   3
 UBDSV1 SAVING "FLOW RIGHT FACE " ON UNIT  53 AT TIME STEP 36, STRESS PERIOD   3
 UBDSV1 SAVING "FLOW FRONT FACE " ON UNIT  53 AT TIME STEP 36, STRESS PERIOD   3
1
              HEAD IN LAYER   1 AT END OF TIME STEP  36 IN STRESS PERIOD    3
  ---------------------------------------------------------------------------

            1           2           3           4           5           6           7           8           9          10
 ........................................................................................................................
   1    9.990       8.788       7.595       6.423       5.283       4.183       3.117       2.071       1.038      1.0280E-02
   2    9.990       8.778       7.574       6.390       5.242       4.150       3.094       2.059       1.033      1.0226E-02
   3    9.990       8.761       7.534       6.319       5.146       4.078       3.052       2.037       1.024      1.0134E-02
   4    9.990       8.740       7.481       6.206       4.942       3.964       2.997       2.012       1.014      1.0042E-02
   5    9.990       8.730       7.445       6.080       4.453       3.838       2.961       2.001       1.011      1.0007E-02
   6    9.990       8.744       7.488       6.214       4.952       3.974       3.006       2.018       1.017      1.0073E-02
   7    9.990       8.768       7.548       6.337       5.166       4.098       3.069       2.049       1.030      1.0199E-02
   8    9.990       8.790       7.597       6.421       5.277       4.183       3.123       2.079       1.043      1.0330E-02
   9    9.990       8.806       7.630       6.470       5.336       4.234       3.159       2.101       1.054      1.0430E-02
  10    9.990       8.814       7.646       6.493       5.363       4.258       3.177       2.112       1.059      1.0483E-02

 HEAD WILL BE SAVED ON UNIT   51 AT END OF TIME STEP   36, STRESS PERIOD    3

 DRAWDOWN WILL BE SAVED ON UNIT   52 AT END OF TIME STEP   36, STRESS PERIOD    3
1
  VOLUMETRIC BUDGET FOR ENTIRE MODEL AT END OF TIME STEP   36, STRESS PERIOD   3
  ------------------------------------------------------------------------------

     CUMULATIVE VOLUMES      L**3       RATES FOR THIS TIME STEP      L**3/T
     ------------------                 ------------------------

           IN:                                      IN:
           ---                                      ---
             STORAGE =       25982.5078               STORAGE =           2.0912
       CONSTANT HEAD =           0.0000         CONSTANT HEAD =           0.0000
               WELLS =           0.0000                 WELLS =           0.0000
     HEAD DEP BOUNDS =       69461.3281       HEAD DEP BOUNDS =         608.9272

            TOTAL IN =       95443.8359              TOTAL IN =         611.0184

          OUT:                                     OUT:
          ----                                     ----
             STORAGE =           0.0000               STORAGE =           0.0000
       CONSTANT HEAD =           0.0000         CONSTANT HEAD =           0.0000
               WELLS =        3600.0000                 WELLS =         100.0000
     HEAD DEP BOUNDS =       91844.1719       HEAD DEP BOUNDS =         511.0254

           TOTAL OUT =       95444.1719             TOTAL OUT =         611.0254

            IN - OUT =          -0.3359              IN - OUT =      -7.0190E-03

 PERCENT DISCREPANCY =          -0.00     PERCENT DISCREPANCY =          -0.00






         TIME SUMMARY AT END OF TIME STEP   36 IN STRESS PERIOD    3
                    SECONDS     MINUTES      HOURS       DAYS        YEARS
                    -----------------------------------------------------------
   TIME STEP LENGTH  86400.      1440.0      24.000      1.0000     2.73785E-03
 STRESS PERIOD TIME 3.11040E+06  51840.      864.00      36.000     9.85626E-02
         TOTAL TIME 1.18368E+07 1.97280E+05  3288.0      137.00     0.37509    
1

 SOLVING FOR HEAD 

 OUTPUT CONTROL FOR STRESS PERIOD    3   TIME STEP   37
    SAVE HEAD FOR ALL LAYERS
    SAVE DRAWDOWN FOR ALL LAYERS
    SAVE BUDGET
    PRINT HEAD FOR ALL LAYERS
    PRINT BUDGET
 UBDSV1 SAVING "         STORAGE" ON UNIT  53 AT TIME STEP 37, STRESS PERIOD   3
 UBDSV2 SAVING "   CONSTANT HEAD" ON UNIT  53 AT TIME STEP 37, STRESS PERIOD   3
 UBDSV1 SAVING "FLOW RIGHT FACE " ON UNIT  53 AT TIME STEP 37, STRESS PERIOD   3
 UBDSV1 SAVING "FLOW FRONT FACE " ON UNIT  53 AT TIME STEP 37, STRESS PERIOD   3
1
              HEAD IN LAYER   1 AT END OF TIME STEP  37 IN STRESS PERIOD    3
  ---------------------------------------------------------------------------

            1           2           3           4           5           6           7           8           9          10
 ........................................................................................................................
   1    9.990       8.788       7.595       6.422       5.282       4.183       3.116       2.071       1.038      1.0277E-02
   2    9.990       8.778       7.574       6.389       5.242       4.149       3.094       2.059       1.033      1.0223E-02
   3    9.990       8.760       7.534       6.318       5.145       4.077       3.051       2.036       1.023      1.0132E-02
   4    9.990       8.740       7.481       6.205       4.942       3.963       2.997       2.012       1.014      1.0040E-02
   5    9.990       8.729       7.444       6.079       4.453       3.837       2.960       2.000       1.010      1.0005E-02
   6    9.990       8.744       7.487       6.214       4.951       3.973       3.005       2.018       1.017      1.0071E-02
   7    9.990       8.768       7.547       6.337       5.166       4.098       3.069       2.049       1.030      1.0197E-02
   8    9.990       8.790       7.597       6.420       5.276       4.183       3.122       2.079       1.043      1.0328E-02
   9    9.990       8.806       7.630       6.470       5.335       4.234       3.158       2.101       1.053      1.0428E-02
  10    9.990       8.814       7.646       6.493       5.362       4.257       3.176       2.112       1.059      1.0481E-02

 HEAD WILL BE SAVED ON UNIT   51 AT END OF TIME STEP   37, STRESS PERIOD    3

 DRAWDOWN WILL BE SAVED ON UNIT   52 AT END OF TIME STEP   37, STRESS PERIOD    3
1
  VOLUMETRIC BUDGET FOR ENTIRE MODEL AT END OF TIME STEP   37, STRESS PERIOD   3
  ------------------------------------------------------------------------------

     CUMULATIVE VOLUMES      L**3       RATES FOR THIS TIME STEP      L**3/T
     ------------------                 ------------------------

           IN:                                      IN:
           ---                                      ---
             STORAGE =       25984.3750               STORAGE =           1.8669
       CONSTANT HEAD =           0.0000         CONSTANT HEAD =           0.0000
               WELLS =           0.0000                 WELLS =           0.0000
     HEAD DEP BOUNDS =       70070.3672       HEAD DEP BOUNDS =         609.0383

            TOTAL IN =       96054.7422              TOTAL IN =         610.9052

          OUT:                                     OUT:
          ----                                     ----
             STORAGE =           0.0000               STORAGE =           0.0000
       CONSTANT HEAD =           0.0000         CONSTANT HEAD =           0.0000
               WELLS =        3700.0000                 WELLS =         100.0000
     HEAD DEP BOUNDS =       92355.0859       HEAD DEP BOUNDS =         510.9132

           TOTAL OUT =       96055.0859             TOTAL OUT =         610.9132

            IN - OUT =          -0.3438              IN - OUT =      -7.9956E-03

 PERCENT DISCREPANCY =          -0.00     PERCENT DISCREPANCY =          -0.00






         TIME SUMMARY AT END OF TIME STEP   37 IN STRESS PERIOD    3
                    SECONDS     MINUTES      HOURS       DAYS        YEARS
                    -----------------------------------------------------------
   TIME STEP LENGTH  86400.      1440.0      24.000      1.0000     2.73785E-03
 STRESS PERIOD TIME 3.19680E+06  53280.      888.00      37.000     0.10130    
         TOTAL TIME 1.19232E+07 1.98720E+05  3312.0      138.00     0.37782    
1

 SOLVING FOR HEAD 

 OUTPUT CONTROL FOR STRESS PERIOD    3   TIME STEP   38
    SAVE HEAD FOR ALL LAYERS
    SAVE DRAWDOWN FOR ALL LAYERS
    SAVE BUDGET
    PRINT HEAD FOR ALL LAYERS
    PRINT BUDGET
 UBDSV1 SAVING "         STORAGE" ON UNIT  53 AT TIME STEP 38, STRESS PERIOD   3
 UBDSV2 SAVING "   CONSTANT HEAD" ON UNIT  53 AT TIME STEP 38, STRESS PERIOD   3
 UBDSV1 SAVING "FLOW RIGHT FACE " ON UNIT  53 AT TIME STEP 38, STRESS PERIOD   3
 UBDSV1 SAVING "FLOW FRONT FACE " ON UNIT  53 AT TIME STEP 38, STRESS PERIOD   3
1
              HEAD IN LAYER   1 AT END OF TIME STEP  38 IN STRESS PERIOD    3
  ---------------------------------------------------------------------------

            1           2           3           4           5           6           7           8           9          10
 ........................................................................................................................
   1    9.990       8.788       7.594       6.422       5.282       4.182       3.116       2.071       1.038      1.0275E-02
   2    9.990       8.778       7.574       6.389       5.241       4.148       3.093       2.058       1.032      1.0221E-02
   3    9.990       8.760       7.533       6.318       5.144       4.077       3.051       2.036       1.023      1.0130E-02
   4    9.990       8.740       7.481       6.205       4.941       3.963       2.996       2.012       1.014      1.0038E-02
   5    9.990       8.729       7.444       6.079       4.452       3.837       2.959       2.000       1.010      1.0003E-02
   6    9.990       8.743       7.487       6.213       4.951       3.972       3.005       2.018       1.017      1.0069E-02
   7    9.990       8.768       7.547       6.336       5.165       4.097       3.068       2.049       1.030      1.0195E-02
   8    9.990       8.790       7.597       6.419       5.275       4.182       3.122       2.078       1.043      1.0326E-02
   9    9.990       8.806       7.629       6.469       5.335       4.233       3.158       2.100       1.053      1.0426E-02
  10    9.990       8.814       7.645       6.492       5.361       4.257       3.176       2.112       1.058      1.0479E-02

 HEAD WILL BE SAVED ON UNIT   51 AT END OF TIME STEP   38, STRESS PERIOD    3

 DRAWDOWN WILL BE SAVED ON UNIT   52 AT END OF TIME STEP   38, STRESS PERIOD    3
1
  VOLUMETRIC BUDGET FOR ENTIRE MODEL AT END OF TIME STEP   38, STRESS PERIOD   3
  ------------------------------------------------------------------------------

     CUMULATIVE VOLUMES      L**3       RATES FOR THIS TIME STEP      L**3/T
     ------------------                 ------------------------

           IN:                                      IN:
           ---                                      ---
             STORAGE =       25986.0410               STORAGE =           1.6667
       CONSTANT HEAD =           0.0000         CONSTANT HEAD =           0.0000
               WELLS =           0.0000                 WELLS =           0.0000
     HEAD DEP BOUNDS =       70679.5078       HEAD DEP BOUNDS =         609.1375

            TOTAL IN =       96665.5469              TOTAL IN =         610.8042

          OUT:                                     OUT:
          ----                                     ----
             STORAGE =           0.0000               STORAGE =           0.0000
       CONSTANT HEAD =           0.0000         CONSTANT HEAD =           0.0000
               WELLS =        3800.0000                 WELLS =         100.0000
     HEAD DEP BOUNDS =       92865.8984       HEAD DEP BOUNDS =         510.8131

           TOTAL OUT =       96665.8984             TOTAL OUT =         610.8131

            IN - OUT =          -0.3516              IN - OUT =      -8.9111E-03

 PERCENT DISCREPANCY =          -0.00     PERCENT DISCREPANCY =          -0.00






         TIME SUMMARY AT END OF TIME STEP   38 IN STRESS PERIOD    3
                    SECONDS     MINUTES      HOURS       DAYS        YEARS
                    -----------------------------------------------------------
   TIME STEP LENGTH  86400.      1440.0      24.000      1.0000     2.73785E-03
 STRESS PERIOD TIME 3.28320E+06  54720.      912.00      38.000     0.10404    
         TOTAL TIME 1.20096E+07 2.00160E+05  3336.0      139.00     0.38056    
1

 SOLVING FOR HEAD 

 OUTPUT CONTROL FOR STRESS PERIOD    3   TIME STEP   39
    SAVE HEAD FOR ALL LAYERS
    SAVE DRAWDOWN FOR ALL LAYERS
    SAVE BUDGET
    PRINT HEAD FOR ALL LAYERS
    PRINT BUDGET
 UBDSV1 SAVING "         STORAGE" ON UNIT  53 AT TIME STEP 39, STRESS PERIOD   3
 UBDSV2 SAVING "   CONSTANT HEAD" ON UNIT  53 AT TIME STEP 39, STRESS PERIOD   3
 UBDSV1 SAVING "FLOW RIGHT FACE " ON UNIT  53 AT TIME STEP 39, STRESS PERIOD   3
 UBDSV1 SAVING "FLOW FRONT FACE " ON UNIT  53 AT TIME STEP 39, STRESS PERIOD   3
1
              HEAD IN LAYER   1 AT END OF TIME STEP  39 IN STRESS PERIOD    3
  ---------------------------------------------------------------------------

            1           2           3           4           5           6           7           8           9          10
 ........................................................................................................................
   1    9.990       8.787       7.594       6.421       5.281       4.182       3.115       2.070       1.038      1.0273E-02
   2    9.990       8.778       7.573       6.388       5.240       4.148       3.093       2.058       1.032      1.0220E-02
   3    9.990       8.760       7.533       6.317       5.144       4.076       3.050       2.036       1.023      1.0128E-02
   4    9.990       8.740       7.480       6.204       4.941       3.962       2.996       2.011       1.014      1.0036E-02
   5    9.989       8.729       7.444       6.078       4.451       3.836       2.959       1.999       1.010      1.0001E-02
   6    9.990       8.743       7.487       6.213       4.950       3.972       3.004       2.017       1.017      1.0067E-02
   7    9.990       8.767       7.547       6.336       5.165       4.097       3.068       2.048       1.030      1.0193E-02
   8    9.990       8.790       7.596       6.419       5.275       4.181       3.121       2.078       1.043      1.0324E-02
   9    9.990       8.806       7.629       6.469       5.334       4.233       3.157       2.100       1.053      1.0424E-02
  10    9.990       8.814       7.645       6.492       5.361       4.256       3.175       2.111       1.058      1.0477E-02

 HEAD WILL BE SAVED ON UNIT   51 AT END OF TIME STEP   39, STRESS PERIOD    3

 DRAWDOWN WILL BE SAVED ON UNIT   52 AT END OF TIME STEP   39, STRESS PERIOD    3
1
  VOLUMETRIC BUDGET FOR ENTIRE MODEL AT END OF TIME STEP   39, STRESS PERIOD   3
  ------------------------------------------------------------------------------

     CUMULATIVE VOLUMES      L**3       RATES FOR THIS TIME STEP      L**3/T
     ------------------                 ------------------------

           IN:                                      IN:
           ---                                      ---
             STORAGE =       25987.5293               STORAGE =           1.4877
       CONSTANT HEAD =           0.0000         CONSTANT HEAD =           0.0000
               WELLS =           0.0000                 WELLS =           0.0000
     HEAD DEP BOUNDS =       71288.7344       HEAD DEP BOUNDS =         609.2260

            TOTAL IN =       97276.2656              TOTAL IN =         610.7137

          OUT:                                     OUT:
          ----                                     ----
             STORAGE =           0.0000               STORAGE =           0.0000
       CONSTANT HEAD =           0.0000         CONSTANT HEAD =           0.0000
               WELLS =        3900.0000                 WELLS =         100.0000
     HEAD DEP BOUNDS =       93376.6250       HEAD DEP BOUNDS =         510.7237

           TOTAL OUT =       97276.6250             TOTAL OUT =         610.7237

            IN - OUT =          -0.3594              IN - OUT =      -9.9487E-03

 PERCENT DISCREPANCY =          -0.00     PERCENT DISCREPANCY =          -0.00






         TIME SUMMARY AT END OF TIME STEP   39 IN STRESS PERIOD    3
                    SECONDS     MINUTES      HOURS       DAYS        YEARS
                    -----------------------------------------------------------
   TIME STEP LENGTH  86400.      1440.0      24.000      1.0000     2.73785E-03
 STRESS PERIOD TIME 3.36960E+06  56160.      936.00      39.000     0.10678    
         TOTAL TIME 1.20960E+07 2.01600E+05  3360.0      140.00     0.38330    
1

 SOLVING FOR HEAD 

 OUTPUT CONTROL FOR STRESS PERIOD    3   TIME STEP   40
    SAVE HEAD FOR ALL LAYERS
    SAVE DRAWDOWN FOR ALL LAYERS
    SAVE BUDGET
    PRINT HEAD FOR ALL LAYERS
    PRINT BUDGET
 UBDSV1 SAVING "         STORAGE" ON UNIT  53 AT TIME STEP 40, STRESS PERIOD   3
 UBDSV2 SAVING "   CONSTANT HEAD" ON UNIT  53 AT TIME STEP 40, STRESS PERIOD   3
 UBDSV1 SAVING "FLOW RIGHT FACE " ON UNIT  53 AT TIME STEP 40, STRESS PERIOD   3
 UBDSV1 SAVING "FLOW FRONT FACE " ON UNIT  53 AT TIME STEP 40, STRESS PERIOD   3
1
              HEAD IN LAYER   1 AT END OF TIME STEP  40 IN STRESS PERIOD    3
  ---------------------------------------------------------------------------

            1           2           3           4           5           6           7           8           9          10
 ........................................................................................................................
   1    9.990       8.787       7.594       6.421       5.281       4.181       3.115       2.070       1.038      1.0272E-02
   2    9.990       8.778       7.573       6.388       5.240       4.147       3.093       2.058       1.032      1.0218E-02
   3    9.990       8.760       7.533       6.317       5.143       4.076       3.050       2.035       1.023      1.0127E-02
   4    9.990       8.740       7.480       6.204       4.940       3.962       2.995       2.011       1.013      1.0035E-02
   5    9.989       8.729       7.443       6.078       4.451       3.836       2.959       1.999       1.010      9.9993E-03
   6    9.990       8.743       7.486       6.212       4.950       3.971       3.004       2.017       1.017      1.0066E-02
   7    9.990       8.767       7.546       6.335       5.164       4.096       3.067       2.048       1.029      1.0192E-02
   8    9.990       8.790       7.596       6.419       5.275       4.181       3.121       2.078       1.043      1.0323E-02
   9    9.990       8.806       7.629       6.468       5.334       4.232       3.157       2.100       1.053      1.0423E-02
  10    9.990       8.813       7.645       6.491       5.361       4.256       3.175       2.111       1.058      1.0476E-02

 HEAD WILL BE SAVED ON UNIT   51 AT END OF TIME STEP   40, STRESS PERIOD    3

 DRAWDOWN WILL BE SAVED ON UNIT   52 AT END OF TIME STEP   40, STRESS PERIOD    3
1
  VOLUMETRIC BUDGET FOR ENTIRE MODEL AT END OF TIME STEP   40, STRESS PERIOD   3
  ------------------------------------------------------------------------------

     CUMULATIVE VOLUMES      L**3       RATES FOR THIS TIME STEP      L**3/T
     ------------------                 ------------------------

           IN:                                      IN:
           ---                                      ---
             STORAGE =       25988.8574               STORAGE =           1.3286
       CONSTANT HEAD =           0.0000         CONSTANT HEAD =           0.0000
               WELLS =           0.0000                 WELLS =           0.0000
     HEAD DEP BOUNDS =       71898.0469       HEAD DEP BOUNDS =         609.3089

            TOTAL IN =       97886.9062              TOTAL IN =         610.6375

          OUT:                                     OUT:
          ----                                     ----
             STORAGE =           0.0000               STORAGE =           0.0000
       CONSTANT HEAD =           0.0000         CONSTANT HEAD =           0.0000
               WELLS =        4000.0000                 WELLS =         100.0000
     HEAD DEP BOUNDS =       93887.2656       HEAD DEP BOUNDS =         510.6439

           TOTAL OUT =       97887.2656             TOTAL OUT =         610.6439

            IN - OUT =          -0.3594              IN - OUT =      -6.4697E-03

 PERCENT DISCREPANCY =          -0.00     PERCENT DISCREPANCY =          -0.00






         TIME SUMMARY AT END OF TIME STEP   40 IN STRESS PERIOD    3
                    SECONDS     MINUTES      HOURS       DAYS        YEARS
                    -----------------------------------------------------------
   TIME STEP LENGTH  86400.      1440.0      24.000      1.0000     2.73785E-03
 STRESS PERIOD TIME 3.45600E+06  57600.      960.00      40.000     0.10951    
         TOTAL TIME 1.21824E+07 2.03040E+05  3384.0      141.00     0.38604    
1

 SOLVING FOR HEAD 

 OUTPUT CONTROL FOR STRESS PERIOD    3   TIME STEP   41
    SAVE HEAD FOR ALL LAYERS
    SAVE DRAWDOWN FOR ALL LAYERS
    SAVE BUDGET
    PRINT HEAD FOR ALL LAYERS
    PRINT BUDGET
 UBDSV1 SAVING "         STORAGE" ON UNIT  53 AT TIME STEP 41, STRESS PERIOD   3
 UBDSV2 SAVING "   CONSTANT HEAD" ON UNIT  53 AT TIME STEP 41, STRESS PERIOD   3
 UBDSV1 SAVING "FLOW RIGHT FACE " ON UNIT  53 AT TIME STEP 41, STRESS PERIOD   3
 UBDSV1 SAVING "FLOW FRONT FACE " ON UNIT  53 AT TIME STEP 41, STRESS PERIOD   3
1
              HEAD IN LAYER   1 AT END OF TIME STEP  41 IN STRESS PERIOD    3
  ---------------------------------------------------------------------------

            1           2           3           4           5           6           7           8           9          10
 ........................................................................................................................
   1    9.990       8.787       7.594       6.421       5.280       4.181       3.114       2.070       1.037      1.0270E-02
   2    9.990       8.777       7.573       6.387       5.240       4.147       3.092       2.057       1.032      1.0217E-02
   3    9.990       8.760       7.532       6.317       5.143       4.075       3.050       2.035       1.023      1.0125E-02
   4    9.990       8.739       7.480       6.203       4.940       3.962       2.995       2.011       1.013      1.0033E-02
   5    9.989       8.729       7.443       6.077       4.451       3.835       2.958       1.999       1.010      9.9979E-03
   6    9.990       8.743       7.486       6.212       4.949       3.971       3.003       2.017       1.016      1.0064E-02
   7    9.990       8.767       7.546       6.335       5.164       4.096       3.067       2.048       1.029      1.0190E-02
   8    9.990       8.790       7.596       6.418       5.274       4.181       3.120       2.078       1.042      1.0321E-02
   9    9.990       8.805       7.628       6.468       5.334       4.232       3.157       2.099       1.053      1.0421E-02
  10    9.990       8.813       7.644       6.491       5.360       4.256       3.174       2.111       1.058      1.0474E-02

 HEAD WILL BE SAVED ON UNIT   51 AT END OF TIME STEP   41, STRESS PERIOD    3

 DRAWDOWN WILL BE SAVED ON UNIT   52 AT END OF TIME STEP   41, STRESS PERIOD    3
1
  VOLUMETRIC BUDGET FOR ENTIRE MODEL AT END OF TIME STEP   41, STRESS PERIOD   3
  ------------------------------------------------------------------------------

     CUMULATIVE VOLUMES      L**3       RATES FOR THIS TIME STEP      L**3/T
     ------------------                 ------------------------

           IN:                                      IN:
           ---                                      ---
             STORAGE =       25990.0430               STORAGE =           1.1859
       CONSTANT HEAD =           0.0000         CONSTANT HEAD =           0.0000
               WELLS =           0.0000                 WELLS =           0.0000
     HEAD DEP BOUNDS =       72507.4297       HEAD DEP BOUNDS =         609.3795

            TOTAL IN =       98497.4688              TOTAL IN =         610.5654

          OUT:                                     OUT:
          ----                                     ----
             STORAGE =           0.0000               STORAGE =           0.0000
       CONSTANT HEAD =           0.0000         CONSTANT HEAD =           0.0000
               WELLS =        4100.0000                 WELLS =         100.0000
     HEAD DEP BOUNDS =       94397.8359       HEAD DEP BOUNDS =         510.5726

           TOTAL OUT =       98497.8359             TOTAL OUT =         610.5726

            IN - OUT =          -0.3672              IN - OUT =      -7.2021E-03

 PERCENT DISCREPANCY =          -0.00     PERCENT DISCREPANCY =          -0.00






         TIME SUMMARY AT END OF TIME STEP   41 IN STRESS PERIOD    3
                    SECONDS     MINUTES      HOURS       DAYS        YEARS
                    -----------------------------------------------------------
   TIME STEP LENGTH  86400.      1440.0      24.000      1.0000     2.73785E-03
 STRESS PERIOD TIME 3.54240E+06  59040.      984.00      41.000     0.11225    
         TOTAL TIME 1.22688E+07 2.04480E+05  3408.0      142.00     0.38877    
1

 SOLVING FOR HEAD 

 OUTPUT CONTROL FOR STRESS PERIOD    3   TIME STEP   42
    SAVE HEAD FOR ALL LAYERS
    SAVE DRAWDOWN FOR ALL LAYERS
    SAVE BUDGET
    PRINT HEAD FOR ALL LAYERS
    PRINT BUDGET
 UBDSV1 SAVING "         STORAGE" ON UNIT  53 AT TIME STEP 42, STRESS PERIOD   3
 UBDSV2 SAVING "   CONSTANT HEAD" ON UNIT  53 AT TIME STEP 42, STRESS PERIOD   3
 UBDSV1 SAVING "FLOW RIGHT FACE " ON UNIT  53 AT TIME STEP 42, STRESS PERIOD   3
 UBDSV1 SAVING "FLOW FRONT FACE " ON UNIT  53 AT TIME STEP 42, STRESS PERIOD   3
1
              HEAD IN LAYER   1 AT END OF TIME STEP  42 IN STRESS PERIOD    3
  ---------------------------------------------------------------------------

            1           2           3           4           5           6           7           8           9          10
 ........................................................................................................................
   1    9.990       8.787       7.593       6.420       5.280       4.180       3.114       2.070       1.037      1.0269E-02
   2    9.990       8.777       7.572       6.387       5.239       4.147       3.092       2.057       1.032      1.0215E-02
   3    9.990       8.760       7.532       6.316       5.143       4.075       3.049       2.035       1.023      1.0124E-02
   4    9.990       8.739       7.479       6.203       4.939       3.961       2.995       2.010       1.013      1.0032E-02
   5    9.989       8.729       7.443       6.077       4.450       3.835       2.958       1.999       1.010      9.9966E-03
   6    9.990       8.743       7.486       6.212       4.949       3.971       3.003       2.016       1.016      1.0063E-02
   7    9.990       8.767       7.546       6.335       5.163       4.095       3.067       2.047       1.029      1.0189E-02
   8    9.990       8.789       7.595       6.418       5.274       4.180       3.120       2.077       1.042      1.0320E-02
   9    9.990       8.805       7.628       6.468       5.333       4.231       3.156       2.099       1.052      1.0420E-02
  10    9.990       8.813       7.644       6.491       5.360       4.255       3.174       2.110       1.058      1.0473E-02

 HEAD WILL BE SAVED ON UNIT   51 AT END OF TIME STEP   42, STRESS PERIOD    3

 DRAWDOWN WILL BE SAVED ON UNIT   52 AT END OF TIME STEP   42, STRESS PERIOD    3
1
  VOLUMETRIC BUDGET FOR ENTIRE MODEL AT END OF TIME STEP   42, STRESS PERIOD   3
  ------------------------------------------------------------------------------

     CUMULATIVE VOLUMES      L**3       RATES FOR THIS TIME STEP      L**3/T
     ------------------                 ------------------------

           IN:                                      IN:
           ---                                      ---
             STORAGE =       25991.1016               STORAGE =           1.0588
       CONSTANT HEAD =           0.0000         CONSTANT HEAD =           0.0000
               WELLS =           0.0000                 WELLS =           0.0000
     HEAD DEP BOUNDS =       73116.8750       HEAD DEP BOUNDS =         609.4426

            TOTAL IN =       99107.9766              TOTAL IN =         610.5013

          OUT:                                     OUT:
          ----                                     ----
             STORAGE =           0.0000               STORAGE =           0.0000
       CONSTANT HEAD =           0.0000         CONSTANT HEAD =           0.0000
               WELLS =        4200.0000                 WELLS =         100.0000
     HEAD DEP BOUNDS =       94908.3438       HEAD DEP BOUNDS =         510.5091

           TOTAL OUT =       99108.3438             TOTAL OUT =         610.5090

            IN - OUT =          -0.3672              IN - OUT =      -7.6904E-03

 PERCENT DISCREPANCY =          -0.00     PERCENT DISCREPANCY =          -0.00






         TIME SUMMARY AT END OF TIME STEP   42 IN STRESS PERIOD    3
                    SECONDS     MINUTES      HOURS       DAYS        YEARS
                    -----------------------------------------------------------
   TIME STEP LENGTH  86400.      1440.0      24.000      1.0000     2.73785E-03
 STRESS PERIOD TIME 3.62880E+06  60480.      1008.0      42.000     0.11499    
         TOTAL TIME 1.23552E+07 2.05920E+05  3432.0      143.00     0.39151    
1

 SOLVING FOR HEAD 

 OUTPUT CONTROL FOR STRESS PERIOD    3   TIME STEP   43
    SAVE HEAD FOR ALL LAYERS
    SAVE DRAWDOWN FOR ALL LAYERS
    SAVE BUDGET
    PRINT HEAD FOR ALL LAYERS
    PRINT BUDGET
 UBDSV1 SAVING "         STORAGE" ON UNIT  53 AT TIME STEP 43, STRESS PERIOD   3
 UBDSV2 SAVING "   CONSTANT HEAD" ON UNIT  53 AT TIME STEP 43, STRESS PERIOD   3
 UBDSV1 SAVING "FLOW RIGHT FACE " ON UNIT  53 AT TIME STEP 43, STRESS PERIOD   3
 UBDSV1 SAVING "FLOW FRONT FACE " ON UNIT  53 AT TIME STEP 43, STRESS PERIOD   3
1
              HEAD IN LAYER   1 AT END OF TIME STEP  43 IN STRESS PERIOD    3
  ---------------------------------------------------------------------------

            1           2           3           4           5           6           7           8           9          10
 ........................................................................................................................
   1    9.990       8.787       7.593       6.420       5.280       4.180       3.114       2.069       1.037      1.0268E-02
   2    9.990       8.777       7.572       6.387       5.239       4.146       3.092       2.057       1.032      1.0214E-02
   3    9.990       8.759       7.532       6.316       5.142       4.075       3.049       2.035       1.022      1.0123E-02
   4    9.990       8.739       7.479       6.203       4.939       3.961       2.994       2.010       1.013      1.0031E-02
   5    9.989       8.729       7.443       6.077       4.450       3.835       2.958       1.998       1.009      9.9955E-03
   6    9.990       8.743       7.486       6.212       4.949       3.970       3.003       2.016       1.016      1.0062E-02
   7    9.990       8.767       7.546       6.335       5.163       4.095       3.066       2.047       1.029      1.0188E-02
   8    9.990       8.789       7.595       6.418       5.273       4.180       3.120       2.077       1.042      1.0319E-02
   9    9.990       8.805       7.628       6.467       5.333       4.231       3.156       2.099       1.052      1.0419E-02
  10    9.990       8.813       7.644       6.490       5.359       4.255       3.174       2.110       1.058      1.0472E-02

 HEAD WILL BE SAVED ON UNIT   51 AT END OF TIME STEP   43, STRESS PERIOD    3

 DRAWDOWN WILL BE SAVED ON UNIT   52 AT END OF TIME STEP   43, STRESS PERIOD    3
1
  VOLUMETRIC BUDGET FOR ENTIRE MODEL AT END OF TIME STEP   43, STRESS PERIOD   3
  ------------------------------------------------------------------------------

     CUMULATIVE VOLUMES      L**3       RATES FOR THIS TIME STEP      L**3/T
     ------------------                 ------------------------

           IN:                                      IN:
           ---                                      ---
             STORAGE =       25992.0469               STORAGE =           0.9451
       CONSTANT HEAD =           0.0000         CONSTANT HEAD =           0.0000
               WELLS =           0.0000                 WELLS =           0.0000
     HEAD DEP BOUNDS =       73726.3750       HEAD DEP BOUNDS =         609.4988

            TOTAL IN =       99718.4219              TOTAL IN =         610.4439

          OUT:                                     OUT:
          ----                                     ----
             STORAGE =           0.0000               STORAGE =           0.0000
       CONSTANT HEAD =           0.0000         CONSTANT HEAD =           0.0000
               WELLS =        4300.0000                 WELLS =         100.0000
     HEAD DEP BOUNDS =       95418.7969       HEAD DEP BOUNDS =         510.4523

           TOTAL OUT =       99718.7969             TOTAL OUT =         610.4523

            IN - OUT =          -0.3750              IN - OUT =      -8.3618E-03

 PERCENT DISCREPANCY =          -0.00     PERCENT DISCREPANCY =          -0.00






         TIME SUMMARY AT END OF TIME STEP   43 IN STRESS PERIOD    3
                    SECONDS     MINUTES      HOURS       DAYS        YEARS
                    -----------------------------------------------------------
   TIME STEP LENGTH  86400.      1440.0      24.000      1.0000     2.73785E-03
 STRESS PERIOD TIME 3.71520E+06  61920.      1032.0      43.000     0.11773    
         TOTAL TIME 1.24416E+07 2.07360E+05  3456.0      144.00     0.39425    
1

 SOLVING FOR HEAD 

 OUTPUT CONTROL FOR STRESS PERIOD    3   TIME STEP   44
    SAVE HEAD FOR ALL LAYERS
    SAVE DRAWDOWN FOR ALL LAYERS
    SAVE BUDGET
    PRINT HEAD FOR ALL LAYERS
    PRINT BUDGET
 UBDSV1 SAVING "         STORAGE" ON UNIT  53 AT TIME STEP 44, STRESS PERIOD   3
 UBDSV2 SAVING "   CONSTANT HEAD" ON UNIT  53 AT TIME STEP 44, STRESS PERIOD   3
 UBDSV1 SAVING "FLOW RIGHT FACE " ON UNIT  53 AT TIME STEP 44, STRESS PERIOD   3
 UBDSV1 SAVING "FLOW FRONT FACE " ON UNIT  53 AT TIME STEP 44, STRESS PERIOD   3
1
              HEAD IN LAYER   1 AT END OF TIME STEP  44 IN STRESS PERIOD    3
  ---------------------------------------------------------------------------

            1           2           3           4           5           6           7           8           9          10
 ........................................................................................................................
   1    9.990       8.787       7.593       6.420       5.279       4.180       3.113       2.069       1.037      1.0267E-02
   2    9.990       8.777       7.572       6.387       5.239       4.146       3.091       2.057       1.032      1.0213E-02
   3    9.990       8.759       7.532       6.316       5.142       4.074       3.049       2.034       1.022      1.0122E-02
   4    9.990       8.739       7.479       6.203       4.939       3.961       2.994       2.010       1.013      1.0030E-02
   5    9.989       8.728       7.442       6.077       4.450       3.834       2.957       1.998       1.009      9.9945E-03
   6    9.990       8.743       7.485       6.211       4.948       3.970       3.002       2.016       1.016      1.0061E-02
   7    9.990       8.767       7.545       6.334       5.163       4.095       3.066       2.047       1.029      1.0187E-02
   8    9.990       8.789       7.595       6.417       5.273       4.180       3.120       2.077       1.042      1.0318E-02
   9    9.990       8.805       7.628       6.467       5.333       4.231       3.156       2.099       1.052      1.0418E-02
  10    9.990       8.813       7.644       6.490       5.359       4.255       3.174       2.110       1.058      1.0471E-02

 HEAD WILL BE SAVED ON UNIT   51 AT END OF TIME STEP   44, STRESS PERIOD    3

 DRAWDOWN WILL BE SAVED ON UNIT   52 AT END OF TIME STEP   44, STRESS PERIOD    3
1
  VOLUMETRIC BUDGET FOR ENTIRE MODEL AT END OF TIME STEP   44, STRESS PERIOD   3
  ------------------------------------------------------------------------------

     CUMULATIVE VOLUMES      L**3       RATES FOR THIS TIME STEP      L**3/T
     ------------------                 ------------------------

           IN:                                      IN:
           ---                                      ---
             STORAGE =       25992.8906               STORAGE =           0.8437
       CONSTANT HEAD =           0.0000         CONSTANT HEAD =           0.0000
               WELLS =           0.0000                 WELLS =           0.0000
     HEAD DEP BOUNDS =       74335.9219       HEAD DEP BOUNDS =         609.5490

            TOTAL IN =      100328.8125              TOTAL IN =         610.3927

          OUT:                                     OUT:
          ----                                     ----
             STORAGE =           0.0000               STORAGE =           0.0000
       CONSTANT HEAD =           0.0000         CONSTANT HEAD =           0.0000
               WELLS =        4400.0000                 WELLS =         100.0000
     HEAD DEP BOUNDS =       95929.1953       HEAD DEP BOUNDS =         510.4016

           TOTAL OUT =      100329.1953             TOTAL OUT =         610.4016

            IN - OUT =          -0.3828              IN - OUT =      -8.9111E-03

 PERCENT DISCREPANCY =          -0.00     PERCENT DISCREPANCY =          -0.00






         TIME SUMMARY AT END OF TIME STEP   44 IN STRESS PERIOD    3
                    SECONDS     MINUTES      HOURS       DAYS        YEARS
                    -----------------------------------------------------------
   TIME STEP LENGTH  86400.      1440.0      24.000      1.0000     2.73785E-03
 STRESS PERIOD TIME 3.80160E+06  63360.      1056.0      44.000     0.12047    
         TOTAL TIME 1.25280E+07 2.08800E+05  3480.0      145.00     0.39699    
1

 SOLVING FOR HEAD 

 OUTPUT CONTROL FOR STRESS PERIOD    3   TIME STEP   45
    SAVE HEAD FOR ALL LAYERS
    SAVE DRAWDOWN FOR ALL LAYERS
    SAVE BUDGET
    PRINT HEAD FOR ALL LAYERS
    PRINT BUDGET
 UBDSV1 SAVING "         STORAGE" ON UNIT  53 AT TIME STEP 45, STRESS PERIOD   3
 UBDSV2 SAVING "   CONSTANT HEAD" ON UNIT  53 AT TIME STEP 45, STRESS PERIOD   3
 UBDSV1 SAVING "FLOW RIGHT FACE " ON UNIT  53 AT TIME STEP 45, STRESS PERIOD   3
 UBDSV1 SAVING "FLOW FRONT FACE " ON UNIT  53 AT TIME STEP 45, STRESS PERIOD   3
1
              HEAD IN LAYER   1 AT END OF TIME STEP  45 IN STRESS PERIOD    3
  ---------------------------------------------------------------------------

            1           2           3           4           5           6           7           8           9          10
 ........................................................................................................................
   1    9.990       8.787       7.593       6.419       5.279       4.179       3.113       2.069       1.037      1.0266E-02
   2    9.990       8.777       7.572       6.386       5.238       4.146       3.091       2.056       1.031      1.0212E-02
   3    9.990       8.759       7.531       6.315       5.142       4.074       3.048       2.034       1.022      1.0121E-02
   4    9.990       8.739       7.479       6.202       4.938       3.960       2.994       2.010       1.013      1.0029E-02
   5    9.989       8.728       7.442       6.076       4.449       3.834       2.957       1.998       1.009      9.9936E-03
   6    9.990       8.743       7.485       6.211       4.948       3.970       3.002       2.016       1.016      1.0060E-02
   7    9.990       8.767       7.545       6.334       5.162       4.094       3.066       2.047       1.029      1.0186E-02
   8    9.990       8.789       7.595       6.417       5.273       4.179       3.119       2.077       1.042      1.0317E-02
   9    9.990       8.805       7.628       6.467       5.332       4.230       3.155       2.099       1.052      1.0417E-02
  10    9.990       8.813       7.643       6.490       5.359       4.254       3.173       2.110       1.058      1.0470E-02

 HEAD WILL BE SAVED ON UNIT   51 AT END OF TIME STEP   45, STRESS PERIOD    3

 DRAWDOWN WILL BE SAVED ON UNIT   52 AT END OF TIME STEP   45, STRESS PERIOD    3
1
  VOLUMETRIC BUDGET FOR ENTIRE MODEL AT END OF TIME STEP   45, STRESS PERIOD   3
  ------------------------------------------------------------------------------

     CUMULATIVE VOLUMES      L**3       RATES FOR THIS TIME STEP      L**3/T
     ------------------                 ------------------------

           IN:                                      IN:
           ---                                      ---
             STORAGE =       25993.6445               STORAGE =           0.7535
       CONSTANT HEAD =           0.0000         CONSTANT HEAD =           0.0000
               WELLS =           0.0000                 WELLS =           0.0000
     HEAD DEP BOUNDS =       74945.5156       HEAD DEP BOUNDS =         609.5938

            TOTAL IN =      100939.1562              TOTAL IN =         610.3473

          OUT:                                     OUT:
          ----                                     ----
             STORAGE =           0.0000               STORAGE =           0.0000
       CONSTANT HEAD =           0.0000         CONSTANT HEAD =           0.0000
               WELLS =        4500.0000                 WELLS =         100.0000
     HEAD DEP BOUNDS =       96439.5547       HEAD DEP BOUNDS =         510.3564

           TOTAL OUT =      100939.5547             TOTAL OUT =         610.3563

            IN - OUT =          -0.3984              IN - OUT =      -9.0332E-03

 PERCENT DISCREPANCY =          -0.00     PERCENT DISCREPANCY =          -0.00






         TIME SUMMARY AT END OF TIME STEP   45 IN STRESS PERIOD    3
                    SECONDS     MINUTES      HOURS       DAYS        YEARS
                    -----------------------------------------------------------
   TIME STEP LENGTH  86400.      1440.0      24.000      1.0000     2.73785E-03
 STRESS PERIOD TIME 3.88800E+06  64800.      1080.0      45.000     0.12320    
         TOTAL TIME 1.26144E+07 2.10240E+05  3504.0      146.00     0.39973    
1

 SOLVING FOR HEAD 

 OUTPUT CONTROL FOR STRESS PERIOD    3   TIME STEP   46
    SAVE HEAD FOR ALL LAYERS
    SAVE DRAWDOWN FOR ALL LAYERS
    SAVE BUDGET
    PRINT HEAD FOR ALL LAYERS
    PRINT BUDGET
 UBDSV1 SAVING "         STORAGE" ON UNIT  53 AT TIME STEP 46, STRESS PERIOD   3
 UBDSV2 SAVING "   CONSTANT HEAD" ON UNIT  53 AT TIME STEP 46, STRESS PERIOD   3
 UBDSV1 SAVING "FLOW RIGHT FACE " ON UNIT  53 AT TIME STEP 46, STRESS PERIOD   3
 UBDSV1 SAVING "FLOW FRONT FACE " ON UNIT  53 AT TIME STEP 46, STRESS PERIOD   3
1
              HEAD IN LAYER   1 AT END OF TIME STEP  46 IN STRESS PERIOD    3
  ---------------------------------------------------------------------------

            1           2           3           4           5           6           7           8           9          10
 ........................................................................................................................
   1    9.990       8.786       7.593       6.419       5.279       4.179       3.113       2.069       1.037      1.0265E-02
   2    9.990       8.777       7.572       6.386       5.238       4.146       3.091       2.056       1.031      1.0211E-02
   3    9.990       8.759       7.531       6.315       5.141       4.074       3.048       2.034       1.022      1.0120E-02
   4    9.990       8.739       7.479       6.202       4.938       3.960       2.994       2.010       1.013      1.0028E-02
   5    9.989       8.728       7.442       6.076       4.449       3.834       2.957       1.998       1.009      9.9927E-03
   6    9.990       8.742       7.485       6.211       4.948       3.970       3.002       2.016       1.016      1.0059E-02
   7    9.990       8.767       7.545       6.334       5.162       4.094       3.066       2.047       1.029      1.0185E-02
   8    9.990       8.789       7.595       6.417       5.273       4.179       3.119       2.077       1.042      1.0316E-02
   9    9.990       8.805       7.627       6.467       5.332       4.230       3.155       2.098       1.052      1.0416E-02
  10    9.990       8.813       7.643       6.490       5.359       4.254       3.173       2.110       1.057      1.0469E-02

 HEAD WILL BE SAVED ON UNIT   51 AT END OF TIME STEP   46, STRESS PERIOD    3

 DRAWDOWN WILL BE SAVED ON UNIT   52 AT END OF TIME STEP   46, STRESS PERIOD    3
1
  VOLUMETRIC BUDGET FOR ENTIRE MODEL AT END OF TIME STEP   46, STRESS PERIOD   3
  ------------------------------------------------------------------------------

     CUMULATIVE VOLUMES      L**3       RATES FOR THIS TIME STEP      L**3/T
     ------------------                 ------------------------

           IN:                                      IN:
           ---                                      ---
             STORAGE =       25994.3164               STORAGE =           0.6723
       CONSTANT HEAD =           0.0000         CONSTANT HEAD =           0.0000
               WELLS =           0.0000                 WELLS =           0.0000
     HEAD DEP BOUNDS =       75555.1484       HEAD DEP BOUNDS =         609.6339

            TOTAL IN =      101549.4688              TOTAL IN =         610.3062

          OUT:                                     OUT:
          ----                                     ----
             STORAGE =           0.0000               STORAGE =           0.0000
       CONSTANT HEAD =           0.0000         CONSTANT HEAD =           0.0000
               WELLS =        4600.0000                 WELLS =         100.0000
     HEAD DEP BOUNDS =       96949.8672       HEAD DEP BOUNDS =         510.3159

           TOTAL OUT =      101549.8672             TOTAL OUT =         610.3159

            IN - OUT =          -0.3984              IN - OUT =      -9.7656E-03

 PERCENT DISCREPANCY =          -0.00     PERCENT DISCREPANCY =          -0.00






         TIME SUMMARY AT END OF TIME STEP   46 IN STRESS PERIOD    3
                    SECONDS     MINUTES      HOURS       DAYS        YEARS
                    -----------------------------------------------------------
   TIME STEP LENGTH  86400.      1440.0      24.000      1.0000     2.73785E-03
 STRESS PERIOD TIME 3.97440E+06  66240.      1104.0      46.000     0.12594    
         TOTAL TIME 1.27008E+07 2.11680E+05  3528.0      147.00     0.40246    
1

 SOLVING FOR HEAD 

 OUTPUT CONTROL FOR STRESS PERIOD    3   TIME STEP   47
    SAVE HEAD FOR ALL LAYERS
    SAVE DRAWDOWN FOR ALL LAYERS
    SAVE BUDGET
    PRINT HEAD FOR ALL LAYERS
    PRINT BUDGET
 UBDSV1 SAVING "         STORAGE" ON UNIT  53 AT TIME STEP 47, STRESS PERIOD   3
 UBDSV2 SAVING "   CONSTANT HEAD" ON UNIT  53 AT TIME STEP 47, STRESS PERIOD   3
 UBDSV1 SAVING "FLOW RIGHT FACE " ON UNIT  53 AT TIME STEP 47, STRESS PERIOD   3
 UBDSV1 SAVING "FLOW FRONT FACE " ON UNIT  53 AT TIME STEP 47, STRESS PERIOD   3
1
              HEAD IN LAYER   1 AT END OF TIME STEP  47 IN STRESS PERIOD    3
  ---------------------------------------------------------------------------

            1           2           3           4           5           6           7           8           9          10
 ........................................................................................................................
   1    9.990       8.786       7.592       6.419       5.279       4.179       3.113       2.069       1.037      1.0264E-02
   2    9.990       8.777       7.572       6.386       5.238       4.145       3.091       2.056       1.031      1.0211E-02
   3    9.990       8.759       7.531       6.315       5.141       4.074       3.048       2.034       1.022      1.0119E-02
   4    9.990       8.739       7.478       6.202       4.938       3.960       2.994       2.010       1.013      1.0027E-02
   5    9.989       8.728       7.442       6.076       4.449       3.834       2.957       1.998       1.009      9.9920E-03
   6    9.990       8.742       7.485       6.211       4.948       3.969       3.002       2.016       1.016      1.0058E-02
   7    9.990       8.767       7.545       6.334       5.162       4.094       3.065       2.047       1.029      1.0184E-02
   8    9.990       8.789       7.595       6.417       5.272       4.179       3.119       2.076       1.042      1.0315E-02
   9    9.990       8.805       7.627       6.466       5.332       4.230       3.155       2.098       1.052      1.0416E-02
  10    9.990       8.813       7.643       6.489       5.358       4.254       3.173       2.110       1.057      1.0469E-02

 HEAD WILL BE SAVED ON UNIT   51 AT END OF TIME STEP   47, STRESS PERIOD    3

 DRAWDOWN WILL BE SAVED ON UNIT   52 AT END OF TIME STEP   47, STRESS PERIOD    3
1
  VOLUMETRIC BUDGET FOR ENTIRE MODEL AT END OF TIME STEP   47, STRESS PERIOD   3
  ------------------------------------------------------------------------------

     CUMULATIVE VOLUMES      L**3       RATES FOR THIS TIME STEP      L**3/T
     ------------------                 ------------------------

           IN:                                      IN:
           ---                                      ---
             STORAGE =       25994.9160               STORAGE =           0.6005
       CONSTANT HEAD =           0.0000         CONSTANT HEAD =           0.0000
               WELLS =           0.0000                 WELLS =           0.0000
     HEAD DEP BOUNDS =       76164.8203       HEAD DEP BOUNDS =         609.6734

            TOTAL IN =      102159.7344              TOTAL IN =         610.2739

          OUT:                                     OUT:
          ----                                     ----
             STORAGE =           0.0000               STORAGE =           0.0000
       CONSTANT HEAD =           0.0000         CONSTANT HEAD =           0.0000
               WELLS =        4700.0000                 WELLS =         100.0000
     HEAD DEP BOUNDS =       97460.1484       HEAD DEP BOUNDS =         510.2799

           TOTAL OUT =      102160.1484             TOTAL OUT =         610.2799

            IN - OUT =          -0.4141              IN - OUT =      -5.9814E-03

 PERCENT DISCREPANCY =          -0.00     PERCENT DISCREPANCY =          -0.00






         TIME SUMMARY AT END OF TIME STEP   47 IN STRESS PERIOD    3
                    SECONDS     MINUTES      HOURS       DAYS        YEARS
                    -----------------------------------------------------------
   TIME STEP LENGTH  86400.      1440.0      24.000      1.0000     2.73785E-03
 STRESS PERIOD TIME 4.06080E+06  67680.      1128.0      47.000     0.12868    
         TOTAL TIME 1.27872E+07 2.13120E+05  3552.0      148.00     0.40520    
1

 SOLVING FOR HEAD 

 OUTPUT CONTROL FOR STRESS PERIOD    3   TIME STEP   48
    SAVE HEAD FOR ALL LAYERS
    SAVE DRAWDOWN FOR ALL LAYERS
    SAVE BUDGET
    PRINT HEAD FOR ALL LAYERS
    PRINT BUDGET
 UBDSV1 SAVING "         STORAGE" ON UNIT  53 AT TIME STEP 48, STRESS PERIOD   3
 UBDSV2 SAVING "   CONSTANT HEAD" ON UNIT  53 AT TIME STEP 48, STRESS PERIOD   3
 UBDSV1 SAVING "FLOW RIGHT FACE " ON UNIT  53 AT TIME STEP 48, STRESS PERIOD   3
 UBDSV1 SAVING "FLOW FRONT FACE " ON UNIT  53 AT TIME STEP 48, STRESS PERIOD   3
1
              HEAD IN LAYER   1 AT END OF TIME STEP  48 IN STRESS PERIOD    3
  ---------------------------------------------------------------------------

            1           2           3           4           5           6           7           8           9          10
 ........................................................................................................................
   1    9.990       8.786       7.592       6.419       5.279       4.179       3.113       2.069       1.037      1.0264E-02
   2    9.990       8.777       7.571       6.386       5.238       4.145       3.090       2.056       1.031      1.0210E-02
   3    9.990       8.759       7.531       6.315       5.141       4.073       3.048       2.034       1.022      1.0119E-02
   4    9.990       8.739       7.478       6.202       4.938       3.960       2.993       2.009       1.013      1.0027E-02
   5    9.989       8.728       7.442       6.076       4.449       3.834       2.957       1.998       1.009      9.9914E-03
   6    9.990       8.742       7.485       6.210       4.948       3.969       3.002       2.015       1.016      1.0058E-02
   7    9.990       8.766       7.545       6.333       5.162       4.094       3.065       2.046       1.029      1.0184E-02
   8    9.990       8.789       7.594       6.417       5.272       4.179       3.119       2.076       1.042      1.0315E-02
   9    9.990       8.805       7.627       6.466       5.332       4.230       3.155       2.098       1.052      1.0415E-02
  10    9.990       8.813       7.643       6.489       5.358       4.254       3.173       2.109       1.057      1.0468E-02

 HEAD WILL BE SAVED ON UNIT   51 AT END OF TIME STEP   48, STRESS PERIOD    3

 DRAWDOWN WILL BE SAVED ON UNIT   52 AT END OF TIME STEP   48, STRESS PERIOD    3
1
  VOLUMETRIC BUDGET FOR ENTIRE MODEL AT END OF TIME STEP   48, STRESS PERIOD   3
  ------------------------------------------------------------------------------

     CUMULATIVE VOLUMES      L**3       RATES FOR THIS TIME STEP      L**3/T
     ------------------                 ------------------------

           IN:                                      IN:
           ---                                      ---
             STORAGE =       25995.4512               STORAGE =           0.5360
       CONSTANT HEAD =           0.0000         CONSTANT HEAD =           0.0000
               WELLS =           0.0000                 WELLS =           0.0000
     HEAD DEP BOUNDS =       76774.5234       HEAD DEP BOUNDS =         609.7053

            TOTAL IN =      102769.9766              TOTAL IN =         610.2413

          OUT:                                     OUT:
          ----                                     ----
             STORAGE =           0.0000               STORAGE =           0.0000
       CONSTANT HEAD =           0.0000         CONSTANT HEAD =           0.0000
               WELLS =        4800.0000                 WELLS =         100.0000
     HEAD DEP BOUNDS =       97970.3984       HEAD DEP BOUNDS =         510.2477

           TOTAL OUT =      102770.3984             TOTAL OUT =         610.2477

            IN - OUT =          -0.4219              IN - OUT =      -6.3477E-03

 PERCENT DISCREPANCY =          -0.00     PERCENT DISCREPANCY =          -0.00






         TIME SUMMARY AT END OF TIME STEP   48 IN STRESS PERIOD    3
                    SECONDS     MINUTES      HOURS       DAYS        YEARS
                    -----------------------------------------------------------
   TIME STEP LENGTH  86400.      1440.0      24.000      1.0000     2.73785E-03
 STRESS PERIOD TIME 4.14720E+06  69120.      1152.0      48.000     0.13142    
         TOTAL TIME 1.28736E+07 2.14560E+05  3576.0      149.00     0.40794    
1

 SOLVING FOR HEAD 

 OUTPUT CONTROL FOR STRESS PERIOD    3   TIME STEP   49
    SAVE HEAD FOR ALL LAYERS
    SAVE DRAWDOWN FOR ALL LAYERS
    SAVE BUDGET
    PRINT HEAD FOR ALL LAYERS
    PRINT BUDGET
 UBDSV1 SAVING "         STORAGE" ON UNIT  53 AT TIME STEP 49, STRESS PERIOD   3
 UBDSV2 SAVING "   CONSTANT HEAD" ON UNIT  53 AT TIME STEP 49, STRESS PERIOD   3
 UBDSV1 SAVING "FLOW RIGHT FACE " ON UNIT  53 AT TIME STEP 49, STRESS PERIOD   3
 UBDSV1 SAVING "FLOW FRONT FACE " ON UNIT  53 AT TIME STEP 49, STRESS PERIOD   3
1
              HEAD IN LAYER   1 AT END OF TIME STEP  49 IN STRESS PERIOD    3
  ---------------------------------------------------------------------------

            1           2           3           4           5           6           7           8           9          10
 ........................................................................................................................
   1    9.990       8.786       7.592       6.419       5.278       4.179       3.113       2.068       1.037      1.0263E-02
   2    9.990       8.777       7.571       6.386       5.238       4.145       3.090       2.056       1.031      1.0209E-02
   3    9.990       8.759       7.531       6.315       5.141       4.073       3.048       2.034       1.022      1.0118E-02
   4    9.990       8.739       7.478       6.202       4.938       3.959       2.993       2.009       1.013      1.0026E-02
   5    9.989       8.728       7.442       6.076       4.449       3.833       2.956       1.998       1.009      9.9908E-03
   6    9.990       8.742       7.485       6.210       4.947       3.969       3.002       2.015       1.016      1.0057E-02
   7    9.990       8.766       7.545       6.333       5.162       4.094       3.065       2.046       1.029      1.0183E-02
   8    9.990       8.789       7.594       6.416       5.272       4.179       3.119       2.076       1.042      1.0314E-02
   9    9.990       8.805       7.627       6.466       5.331       4.230       3.155       2.098       1.052      1.0414E-02
  10    9.990       8.813       7.643       6.489       5.358       4.253       3.173       2.109       1.057      1.0467E-02

 HEAD WILL BE SAVED ON UNIT   51 AT END OF TIME STEP   49, STRESS PERIOD    3

 DRAWDOWN WILL BE SAVED ON UNIT   52 AT END OF TIME STEP   49, STRESS PERIOD    3
1
  VOLUMETRIC BUDGET FOR ENTIRE MODEL AT END OF TIME STEP   49, STRESS PERIOD   3
  ------------------------------------------------------------------------------

     CUMULATIVE VOLUMES      L**3       RATES FOR THIS TIME STEP      L**3/T
     ------------------                 ------------------------

           IN:                                      IN:
           ---                                      ---
             STORAGE =       25995.9297               STORAGE =           0.4786
       CONSTANT HEAD =           0.0000         CONSTANT HEAD =           0.0000
               WELLS =           0.0000                 WELLS =           0.0000
     HEAD DEP BOUNDS =       77384.2578       HEAD DEP BOUNDS =         609.7338

            TOTAL IN =      103380.1875              TOTAL IN =         610.2124

          OUT:                                     OUT:
          ----                                     ----
             STORAGE =           0.0000               STORAGE =           0.0000
       CONSTANT HEAD =           0.0000         CONSTANT HEAD =           0.0000
               WELLS =        4900.0000                 WELLS =         100.0000
     HEAD DEP BOUNDS =       98480.6172       HEAD DEP BOUNDS =         510.2189

           TOTAL OUT =      103380.6172             TOTAL OUT =         610.2189

            IN - OUT =          -0.4297              IN - OUT =      -6.5308E-03

 PERCENT DISCREPANCY =          -0.00     PERCENT DISCREPANCY =          -0.00






         TIME SUMMARY AT END OF TIME STEP   49 IN STRESS PERIOD    3
                    SECONDS     MINUTES      HOURS       DAYS        YEARS
                    -----------------------------------------------------------
   TIME STEP LENGTH  86400.      1440.0      24.000      1.0000     2.73785E-03
 STRESS PERIOD TIME 4.23360E+06  70560.      1176.0      49.000     0.13415    
         TOTAL TIME 1.29600E+07 2.16000E+05  3600.0      150.00     0.41068    
1

 SOLVING FOR HEAD 

 OUTPUT CONTROL FOR STRESS PERIOD    3   TIME STEP   50
    SAVE HEAD FOR ALL LAYERS
    SAVE DRAWDOWN FOR ALL LAYERS
    SAVE BUDGET
    PRINT HEAD FOR ALL LAYERS
    PRINT BUDGET
 UBDSV1 SAVING "         STORAGE" ON UNIT  53 AT TIME STEP 50, STRESS PERIOD   3
 UBDSV2 SAVING "   CONSTANT HEAD" ON UNIT  53 AT TIME STEP 50, STRESS PERIOD   3
 UBDSV1 SAVING "FLOW RIGHT FACE " ON UNIT  53 AT TIME STEP 50, STRESS PERIOD   3
 UBDSV1 SAVING "FLOW FRONT FACE " ON UNIT  53 AT TIME STEP 50, STRESS PERIOD   3
1
              HEAD IN LAYER   1 AT END OF TIME STEP  50 IN STRESS PERIOD    3
  ---------------------------------------------------------------------------

            1           2           3           4           5           6           7           8           9          10
 ........................................................................................................................
   1    9.990       8.786       7.592       6.419       5.278       4.179       3.112       2.068       1.037      1.0263E-02
   2    9.990       8.777       7.571       6.386       5.237       4.145       3.090       2.056       1.031      1.0209E-02
   3    9.990       8.759       7.531       6.315       5.141       4.073       3.048       2.034       1.022      1.0118E-02
   4    9.990       8.739       7.478       6.201       4.938       3.959       2.993       2.009       1.013      1.0026E-02
   5    9.989       8.728       7.442       6.075       4.448       3.833       2.956       1.997       1.009      9.9903E-03
   6    9.990       8.742       7.485       6.210       4.947       3.969       3.001       2.015       1.016      1.0057E-02
   7    9.990       8.766       7.545       6.333       5.162       4.093       3.065       2.046       1.028      1.0183E-02
   8    9.990       8.789       7.594       6.416       5.272       4.178       3.119       2.076       1.042      1.0314E-02
   9    9.990       8.805       7.627       6.466       5.331       4.229       3.155       2.098       1.052      1.0414E-02
  10    9.990       8.813       7.643       6.489       5.358       4.253       3.172       2.109       1.057      1.0467E-02

 HEAD WILL BE SAVED ON UNIT   51 AT END OF TIME STEP   50, STRESS PERIOD    3

 DRAWDOWN WILL BE SAVED ON UNIT   52 AT END OF TIME STEP   50, STRESS PERIOD    3
1
  VOLUMETRIC BUDGET FOR ENTIRE MODEL AT END OF TIME STEP   50, STRESS PERIOD   3
  ------------------------------------------------------------------------------

     CUMULATIVE VOLUMES      L**3       RATES FOR THIS TIME STEP      L**3/T
     ------------------                 ------------------------

           IN:                                      IN:
           ---                                      ---
             STORAGE =       25996.3574               STORAGE =           0.4272
       CONSTANT HEAD =           0.0000         CONSTANT HEAD =           0.0000
               WELLS =           0.0000                 WELLS =           0.0000
     HEAD DEP BOUNDS =       77994.0156       HEAD DEP BOUNDS =         609.7592

            TOTAL IN =      103990.3750              TOTAL IN =         610.1864

          OUT:                                     OUT:
          ----                                     ----
             STORAGE =           0.0000               STORAGE =           0.0000
       CONSTANT HEAD =           0.0000         CONSTANT HEAD =           0.0000
               WELLS =        5000.0000                 WELLS =         100.0000
     HEAD DEP BOUNDS =       98990.8125       HEAD DEP BOUNDS =         510.1933

           TOTAL OUT =      103990.8125             TOTAL OUT =         610.1932

            IN - OUT =          -0.4375              IN - OUT =      -6.8359E-03

 PERCENT DISCREPANCY =          -0.00     PERCENT DISCREPANCY =          -0.00






         TIME SUMMARY AT END OF TIME STEP   50 IN STRESS PERIOD    3
                    SECONDS     MINUTES      HOURS       DAYS        YEARS
                    -----------------------------------------------------------
   TIME STEP LENGTH  86400.      1440.0      24.000      1.0000     2.73785E-03
 STRESS PERIOD TIME 4.32000E+06  72000.      1200.0      50.000     0.13689    
         TOTAL TIME 1.30464E+07 2.17440E+05  3624.0      151.00     0.41342    
1

 SOLVING FOR HEAD 

 OUTPUT CONTROL FOR STRESS PERIOD    3   TIME STEP   51
    SAVE HEAD FOR ALL LAYERS
    SAVE DRAWDOWN FOR ALL LAYERS
    SAVE BUDGET
    PRINT HEAD FOR ALL LAYERS
    PRINT BUDGET
 UBDSV1 SAVING "         STORAGE" ON UNIT  53 AT TIME STEP 51, STRESS PERIOD   3
 UBDSV2 SAVING "   CONSTANT HEAD" ON UNIT  53 AT TIME STEP 51, STRESS PERIOD   3
 UBDSV1 SAVING "FLOW RIGHT FACE " ON UNIT  53 AT TIME STEP 51, STRESS PERIOD   3
 UBDSV1 SAVING "FLOW FRONT FACE " ON UNIT  53 AT TIME STEP 51, STRESS PERIOD   3
1
              HEAD IN LAYER   1 AT END OF TIME STEP  51 IN STRESS PERIOD    3
  ---------------------------------------------------------------------------

            1           2           3           4           5           6           7           8           9          10
 ........................................................................................................................
   1    9.990       8.786       7.592       6.419       5.278       4.178       3.112       2.068       1.037      1.0262E-02
   2    9.990       8.777       7.571       6.385       5.237       4.145       3.090       2.056       1.031      1.0208E-02
   3    9.990       8.759       7.531       6.315       5.141       4.073       3.047       2.034       1.022      1.0117E-02
   4    9.990       8.739       7.478       6.201       4.937       3.959       2.993       2.009       1.012      1.0025E-02
   5    9.989       8.728       7.442       6.075       4.448       3.833       2.956       1.997       1.009      9.9898E-03
   6    9.990       8.742       7.485       6.210       4.947       3.969       3.001       2.015       1.016      1.0056E-02
   7    9.990       8.766       7.545       6.333       5.161       4.093       3.065       2.046       1.028      1.0182E-02
   8    9.990       8.789       7.594       6.416       5.272       4.178       3.118       2.076       1.042      1.0313E-02
   9    9.990       8.805       7.627       6.466       5.331       4.229       3.155       2.098       1.052      1.0413E-02
  10    9.990       8.813       7.643       6.489       5.358       4.253       3.172       2.109       1.057      1.0466E-02

 HEAD WILL BE SAVED ON UNIT   51 AT END OF TIME STEP   51, STRESS PERIOD    3

 DRAWDOWN WILL BE SAVED ON UNIT   52 AT END OF TIME STEP   51, STRESS PERIOD    3
1
  VOLUMETRIC BUDGET FOR ENTIRE MODEL AT END OF TIME STEP   51, STRESS PERIOD   3
  ------------------------------------------------------------------------------

     CUMULATIVE VOLUMES      L**3       RATES FOR THIS TIME STEP      L**3/T
     ------------------                 ------------------------

           IN:                                      IN:
           ---                                      ---
             STORAGE =       25996.7383               STORAGE =           0.3815
       CONSTANT HEAD =           0.0000         CONSTANT HEAD =           0.0000
               WELLS =           0.0000                 WELLS =           0.0000
     HEAD DEP BOUNDS =       78603.7969       HEAD DEP BOUNDS =         609.7819

            TOTAL IN =      104600.5312              TOTAL IN =         610.1635

          OUT:                                     OUT:
          ----                                     ----
             STORAGE =           0.0000               STORAGE =           0.0000
       CONSTANT HEAD =           0.0000         CONSTANT HEAD =           0.0000
               WELLS =        5100.0000                 WELLS =         100.0000
     HEAD DEP BOUNDS =       99500.9844       HEAD DEP BOUNDS =         510.1703

           TOTAL OUT =      104600.9844             TOTAL OUT =         610.1703

            IN - OUT =          -0.4531              IN - OUT =      -6.8970E-03

 PERCENT DISCREPANCY =          -0.00     PERCENT DISCREPANCY =          -0.00






         TIME SUMMARY AT END OF TIME STEP   51 IN STRESS PERIOD    3
                    SECONDS     MINUTES      HOURS       DAYS        YEARS
                    -----------------------------------------------------------
   TIME STEP LENGTH  86400.      1440.0      24.000      1.0000     2.73785E-03
 STRESS PERIOD TIME 4.40640E+06  73440.      1224.0      51.000     0.13963    
         TOTAL TIME 1.31328E+07 2.18880E+05  3648.0      152.00     0.41615    
1

 SOLVING FOR HEAD 

 OUTPUT CONTROL FOR STRESS PERIOD    3   TIME STEP   52
    SAVE HEAD FOR ALL LAYERS
    SAVE DRAWDOWN FOR ALL LAYERS
    SAVE BUDGET
    PRINT HEAD FOR ALL LAYERS
    PRINT BUDGET
 UBDSV1 SAVING "         STORAGE" ON UNIT  53 AT TIME STEP 52, STRESS PERIOD   3
 UBDSV2 SAVING "   CONSTANT HEAD" ON UNIT  53 AT TIME STEP 52, STRESS PERIOD   3
 UBDSV1 SAVING "FLOW RIGHT FACE " ON UNIT  53 AT TIME STEP 52, STRESS PERIOD   3
 UBDSV1 SAVING "FLOW FRONT FACE " ON UNIT  53 AT TIME STEP 52, STRESS PERIOD   3
1
              HEAD IN LAYER   1 AT END OF TIME STEP  52 IN STRESS PERIOD    3
  ---------------------------------------------------------------------------

            1           2           3           4           5           6           7           8           9          10
 ........................................................................................................................
   1    9.990       8.786       7.592       6.418       5.278       4.178       3.112       2.068       1.037      1.0262E-02
   2    9.990       8.777       7.571       6.385       5.237       4.145       3.090       2.056       1.031      1.0208E-02
   3    9.990       8.759       7.531       6.314       5.140       4.073       3.047       2.033       1.022      1.0117E-02
   4    9.990       8.739       7.478       6.201       4.937       3.959       2.993       2.009       1.012      1.0025E-02
   5    9.989       8.728       7.441       6.075       4.448       3.833       2.956       1.997       1.009      9.9894E-03
   6    9.990       8.742       7.485       6.210       4.947       3.969       3.001       2.015       1.016      1.0056E-02
   7    9.990       8.766       7.544       6.333       5.161       4.093       3.065       2.046       1.028      1.0182E-02
   8    9.990       8.789       7.594       6.416       5.272       4.178       3.118       2.076       1.042      1.0313E-02
   9    9.990       8.805       7.627       6.466       5.331       4.229       3.154       2.098       1.052      1.0413E-02
  10    9.990       8.812       7.643       6.489       5.358       4.253       3.172       2.109       1.057      1.0466E-02

 HEAD WILL BE SAVED ON UNIT   51 AT END OF TIME STEP   52, STRESS PERIOD    3

 DRAWDOWN WILL BE SAVED ON UNIT   52 AT END OF TIME STEP   52, STRESS PERIOD    3
1
  VOLUMETRIC BUDGET FOR ENTIRE MODEL AT END OF TIME STEP   52, STRESS PERIOD   3
  ------------------------------------------------------------------------------

     CUMULATIVE VOLUMES      L**3       RATES FOR THIS TIME STEP      L**3/T
     ------------------                 ------------------------

           IN:                                      IN:
           ---                                      ---
             STORAGE =       25997.0781               STORAGE =           0.3405
       CONSTANT HEAD =           0.0000         CONSTANT HEAD =           0.0000
               WELLS =           0.0000                 WELLS =           0.0000
     HEAD DEP BOUNDS =       79213.6016       HEAD DEP BOUNDS =         609.8060

            TOTAL IN =      105210.6797              TOTAL IN =         610.1465

          OUT:                                     OUT:
          ----                                     ----
             STORAGE =           0.0000               STORAGE =           0.0000
       CONSTANT HEAD =           0.0000         CONSTANT HEAD =           0.0000
               WELLS =        5200.0000                 WELLS =         100.0000
     HEAD DEP BOUNDS =      100011.1328       HEAD DEP BOUNDS =         510.1499

           TOTAL OUT =      105211.1328             TOTAL OUT =         610.1499

            IN - OUT =          -0.4531              IN - OUT =      -3.3569E-03

 PERCENT DISCREPANCY =          -0.00     PERCENT DISCREPANCY =          -0.00






         TIME SUMMARY AT END OF TIME STEP   52 IN STRESS PERIOD    3
                    SECONDS     MINUTES      HOURS       DAYS        YEARS
                    -----------------------------------------------------------
   TIME STEP LENGTH  86400.      1440.0      24.000      1.0000     2.73785E-03
 STRESS PERIOD TIME 4.49280E+06  74880.      1248.0      52.000     0.14237    
         TOTAL TIME 1.32192E+07 2.20320E+05  3672.0      153.00     0.41889    
1

 SOLVING FOR HEAD 

 OUTPUT CONTROL FOR STRESS PERIOD    3   TIME STEP   53
    SAVE HEAD FOR ALL LAYERS
    SAVE DRAWDOWN FOR ALL LAYERS
    SAVE BUDGET
    PRINT HEAD FOR ALL LAYERS
    PRINT BUDGET
 UBDSV1 SAVING "         STORAGE" ON UNIT  53 AT TIME STEP 53, STRESS PERIOD   3
 UBDSV2 SAVING "   CONSTANT HEAD" ON UNIT  53 AT TIME STEP 53, STRESS PERIOD   3
 UBDSV1 SAVING "FLOW RIGHT FACE " ON UNIT  53 AT TIME STEP 53, STRESS PERIOD   3
 UBDSV1 SAVING "FLOW FRONT FACE " ON UNIT  53 AT TIME STEP 53, STRESS PERIOD   3
1
              HEAD IN LAYER   1 AT END OF TIME STEP  53 IN STRESS PERIOD    3
  ---------------------------------------------------------------------------

            1           2           3           4           5           6           7           8           9          10
 ........................................................................................................................
   1    9.990       8.786       7.592       6.418       5.278       4.178       3.112       2.068       1.036      1.0261E-02
   2    9.990       8.776       7.571       6.385       5.237       4.144       3.090       2.056       1.031      1.0208E-02
   3    9.990       8.759       7.531       6.314       5.140       4.073       3.047       2.033       1.022      1.0116E-02
   4    9.990       8.739       7.478       6.201       4.937       3.959       2.993       2.009       1.012      1.0024E-02
   5    9.989       8.728       7.441       6.075       4.448       3.833       2.956       1.997       1.009      9.9891E-03
   6    9.990       8.742       7.484       6.210       4.947       3.969       3.001       2.015       1.016      1.0055E-02
   7    9.990       8.766       7.544       6.333       5.161       4.093       3.065       2.046       1.028      1.0182E-02
   8    9.990       8.789       7.594       6.416       5.272       4.178       3.118       2.076       1.042      1.0312E-02
   9    9.990       8.804       7.627       6.466       5.331       4.229       3.154       2.098       1.052      1.0413E-02
  10    9.990       8.812       7.643       6.489       5.358       4.253       3.172       2.109       1.057      1.0466E-02

 HEAD WILL BE SAVED ON UNIT   51 AT END OF TIME STEP   53, STRESS PERIOD    3

 DRAWDOWN WILL BE SAVED ON UNIT   52 AT END OF TIME STEP   53, STRESS PERIOD    3
1
  VOLUMETRIC BUDGET FOR ENTIRE MODEL AT END OF TIME STEP   53, STRESS PERIOD   3
  ------------------------------------------------------------------------------

     CUMULATIVE VOLUMES      L**3       RATES FOR THIS TIME STEP      L**3/T
     ------------------                 ------------------------

           IN:                                      IN:
           ---                                      ---
             STORAGE =       25997.3828               STORAGE =           0.3040
       CONSTANT HEAD =           0.0000         CONSTANT HEAD =           0.0000
               WELLS =           0.0000                 WELLS =           0.0000
     HEAD DEP BOUNDS =       79823.4219       HEAD DEP BOUNDS =         609.8241

            TOTAL IN =      105820.8047              TOTAL IN =         610.1281

          OUT:                                     OUT:
          ----                                     ----
             STORAGE =           0.0000               STORAGE =           0.0000
       CONSTANT HEAD =           0.0000         CONSTANT HEAD =           0.0000
               WELLS =        5300.0000                 WELLS =         100.0000
     HEAD DEP BOUNDS =      100521.2656       HEAD DEP BOUNDS =         510.1316

           TOTAL OUT =      105821.2656             TOTAL OUT =         610.1316

            IN - OUT =          -0.4609              IN - OUT =      -3.4790E-03

 PERCENT DISCREPANCY =          -0.00     PERCENT DISCREPANCY =          -0.00






         TIME SUMMARY AT END OF TIME STEP   53 IN STRESS PERIOD    3
                    SECONDS     MINUTES      HOURS       DAYS        YEARS
                    -----------------------------------------------------------
   TIME STEP LENGTH  86400.      1440.0      24.000      1.0000     2.73785E-03
 STRESS PERIOD TIME 4.57920E+06  76320.      1272.0      53.000     0.14511    
         TOTAL TIME 1.33056E+07 2.21760E+05  3696.0      154.00     0.42163    
1

 SOLVING FOR HEAD 

 OUTPUT CONTROL FOR STRESS PERIOD    3   TIME STEP   54
    SAVE HEAD FOR ALL LAYERS
    SAVE DRAWDOWN FOR ALL LAYERS
    SAVE BUDGET
    PRINT HEAD FOR ALL LAYERS
    PRINT BUDGET
 UBDSV1 SAVING "         STORAGE" ON UNIT  53 AT TIME STEP 54, STRESS PERIOD   3
 UBDSV2 SAVING "   CONSTANT HEAD" ON UNIT  53 AT TIME STEP 54, STRESS PERIOD   3
 UBDSV1 SAVING "FLOW RIGHT FACE " ON UNIT  53 AT TIME STEP 54, STRESS PERIOD   3
 UBDSV1 SAVING "FLOW FRONT FACE " ON UNIT  53 AT TIME STEP 54, STRESS PERIOD   3
1
              HEAD IN LAYER   1 AT END OF TIME STEP  54 IN STRESS PERIOD    3
  ---------------------------------------------------------------------------

            1           2           3           4           5           6           7           8           9          10
 ........................................................................................................................
   1    9.990       8.786       7.592       6.418       5.278       4.178       3.112       2.068       1.036      1.0261E-02
   2    9.990       8.776       7.571       6.385       5.237       4.144       3.090       2.056       1.031      1.0207E-02
   3    9.990       8.759       7.531       6.314       5.140       4.073       3.047       2.033       1.022      1.0116E-02
   4    9.990       8.739       7.478       6.201       4.937       3.959       2.993       2.009       1.012      1.0024E-02
   5    9.989       8.728       7.441       6.075       4.448       3.833       2.956       1.997       1.009      9.9887E-03
   6    9.990       8.742       7.484       6.210       4.947       3.968       3.001       2.015       1.016      1.0055E-02
   7    9.990       8.766       7.544       6.333       5.161       4.093       3.065       2.046       1.028      1.0181E-02
   8    9.990       8.789       7.594       6.416       5.271       4.178       3.118       2.076       1.042      1.0312E-02
   9    9.990       8.804       7.627       6.466       5.331       4.229       3.154       2.098       1.052      1.0412E-02
  10    9.990       8.812       7.643       6.489       5.357       4.253       3.172       2.109       1.057      1.0465E-02

 HEAD WILL BE SAVED ON UNIT   51 AT END OF TIME STEP   54, STRESS PERIOD    3

 DRAWDOWN WILL BE SAVED ON UNIT   52 AT END OF TIME STEP   54, STRESS PERIOD    3
1
  VOLUMETRIC BUDGET FOR ENTIRE MODEL AT END OF TIME STEP   54, STRESS PERIOD   3
  ------------------------------------------------------------------------------

     CUMULATIVE VOLUMES      L**3       RATES FOR THIS TIME STEP      L**3/T
     ------------------                 ------------------------

           IN:                                      IN:
           ---                                      ---
             STORAGE =       25997.6543               STORAGE =           0.2713
       CONSTANT HEAD =           0.0000         CONSTANT HEAD =           0.0000
               WELLS =           0.0000                 WELLS =           0.0000
     HEAD DEP BOUNDS =       80433.2656       HEAD DEP BOUNDS =         609.8403

            TOTAL IN =      106430.9219              TOTAL IN =         610.1116

          OUT:                                     OUT:
          ----                                     ----
             STORAGE =           0.0000               STORAGE =           0.0000
       CONSTANT HEAD =           0.0000         CONSTANT HEAD =           0.0000
               WELLS =        5400.0000                 WELLS =         100.0000
     HEAD DEP BOUNDS =      101031.3828       HEAD DEP BOUNDS =         510.1153

           TOTAL OUT =      106431.3828             TOTAL OUT =         610.1154

            IN - OUT =          -0.4609              IN - OUT =      -3.7842E-03

 PERCENT DISCREPANCY =          -0.00     PERCENT DISCREPANCY =          -0.00






         TIME SUMMARY AT END OF TIME STEP   54 IN STRESS PERIOD    3
                    SECONDS     MINUTES      HOURS       DAYS        YEARS
                    -----------------------------------------------------------
   TIME STEP LENGTH  86400.      1440.0      24.000      1.0000     2.73785E-03
 STRESS PERIOD TIME 4.66560E+06  77760.      1296.0      54.000     0.14784    
         TOTAL TIME 1.33920E+07 2.23200E+05  3720.0      155.00     0.42437    
1

 SOLVING FOR HEAD 

 OUTPUT CONTROL FOR STRESS PERIOD    3   TIME STEP   55
    SAVE HEAD FOR ALL LAYERS
    SAVE DRAWDOWN FOR ALL LAYERS
    SAVE BUDGET
    PRINT HEAD FOR ALL LAYERS
    PRINT BUDGET
 UBDSV1 SAVING "         STORAGE" ON UNIT  53 AT TIME STEP 55, STRESS PERIOD   3
 UBDSV2 SAVING "   CONSTANT HEAD" ON UNIT  53 AT TIME STEP 55, STRESS PERIOD   3
 UBDSV1 SAVING "FLOW RIGHT FACE " ON UNIT  53 AT TIME STEP 55, STRESS PERIOD   3
 UBDSV1 SAVING "FLOW FRONT FACE " ON UNIT  53 AT TIME STEP 55, STRESS PERIOD   3
1
              HEAD IN LAYER   1 AT END OF TIME STEP  55 IN STRESS PERIOD    3
  ---------------------------------------------------------------------------

            1           2           3           4           5           6           7           8           9          10
 ........................................................................................................................
   1    9.990       8.786       7.592       6.418       5.278       4.178       3.112       2.068       1.036      1.0261E-02
   2    9.990       8.776       7.571       6.385       5.237       4.144       3.090       2.055       1.031      1.0207E-02
   3    9.990       8.759       7.530       6.314       5.140       4.073       3.047       2.033       1.022      1.0116E-02
   4    9.990       8.739       7.478       6.201       4.937       3.959       2.993       2.009       1.012      1.0024E-02
   5    9.989       8.728       7.441       6.075       4.448       3.833       2.956       1.997       1.009      9.9884E-03
   6    9.990       8.742       7.484       6.210       4.947       3.968       3.001       2.015       1.015      1.0055E-02
   7    9.990       8.766       7.544       6.333       5.161       4.093       3.064       2.046       1.028      1.0181E-02
   8    9.990       8.789       7.594       6.416       5.271       4.178       3.118       2.076       1.042      1.0312E-02
   9    9.990       8.804       7.627       6.465       5.331       4.229       3.154       2.098       1.052      1.0412E-02
  10    9.990       8.812       7.642       6.488       5.357       4.253       3.172       2.109       1.057      1.0465E-02

 HEAD WILL BE SAVED ON UNIT   51 AT END OF TIME STEP   55, STRESS PERIOD    3

 DRAWDOWN WILL BE SAVED ON UNIT   52 AT END OF TIME STEP   55, STRESS PERIOD    3
1
  VOLUMETRIC BUDGET FOR ENTIRE MODEL AT END OF TIME STEP   55, STRESS PERIOD   3
  ------------------------------------------------------------------------------

     CUMULATIVE VOLUMES      L**3       RATES FOR THIS TIME STEP      L**3/T
     ------------------                 ------------------------

           IN:                                      IN:
           ---                                      ---
             STORAGE =       25997.8965               STORAGE =           0.2421
       CONSTANT HEAD =           0.0000         CONSTANT HEAD =           0.0000
               WELLS =           0.0000                 WELLS =           0.0000
     HEAD DEP BOUNDS =       81043.1172       HEAD DEP BOUNDS =         609.8547

            TOTAL IN =      107041.0156              TOTAL IN =         610.0968

          OUT:                                     OUT:
          ----                                     ----
             STORAGE =           0.0000               STORAGE =           0.0000
       CONSTANT HEAD =           0.0000         CONSTANT HEAD =           0.0000
               WELLS =        5500.0000                 WELLS =         100.0000
     HEAD DEP BOUNDS =      101541.4844       HEAD DEP BOUNDS =         510.1008

           TOTAL OUT =      107041.4844             TOTAL OUT =         610.1008

            IN - OUT =          -0.4688              IN - OUT =      -3.9673E-03

 PERCENT DISCREPANCY =          -0.00     PERCENT DISCREPANCY =          -0.00






         TIME SUMMARY AT END OF TIME STEP   55 IN STRESS PERIOD    3
                    SECONDS     MINUTES      HOURS       DAYS        YEARS
                    -----------------------------------------------------------
   TIME STEP LENGTH  86400.      1440.0      24.000      1.0000     2.73785E-03
 STRESS PERIOD TIME 4.75200E+06  79200.      1320.0      55.000     0.15058    
         TOTAL TIME 1.34784E+07 2.24640E+05  3744.0      156.00     0.42710    
1

 SOLVING FOR HEAD 

 OUTPUT CONTROL FOR STRESS PERIOD    3   TIME STEP   56
    SAVE HEAD FOR ALL LAYERS
    SAVE DRAWDOWN FOR ALL LAYERS
    SAVE BUDGET
    PRINT HEAD FOR ALL LAYERS
    PRINT BUDGET
 UBDSV1 SAVING "         STORAGE" ON UNIT  53 AT TIME STEP 56, STRESS PERIOD   3
 UBDSV2 SAVING "   CONSTANT HEAD" ON UNIT  53 AT TIME STEP 56, STRESS PERIOD   3
 UBDSV1 SAVING "FLOW RIGHT FACE " ON UNIT  53 AT TIME STEP 56, STRESS PERIOD   3
 UBDSV1 SAVING "FLOW FRONT FACE " ON UNIT  53 AT TIME STEP 56, STRESS PERIOD   3
1
              HEAD IN LAYER   1 AT END OF TIME STEP  56 IN STRESS PERIOD    3
  ---------------------------------------------------------------------------

            1           2           3           4           5           6           7           8           9          10
 ........................................................................................................................
   1    9.990       8.786       7.592       6.418       5.278       4.178       3.112       2.068       1.036      1.0261E-02
   2    9.990       8.776       7.571       6.385       5.237       4.144       3.090       2.055       1.031      1.0207E-02
   3    9.990       8.759       7.530       6.314       5.140       4.073       3.047       2.033       1.022      1.0115E-02
   4    9.990       8.738       7.478       6.201       4.937       3.959       2.993       2.009       1.012      1.0023E-02
   5    9.989       8.728       7.441       6.075       4.448       3.833       2.956       1.997       1.009      9.9882E-03
   6    9.990       8.742       7.484       6.210       4.947       3.968       3.001       2.015       1.015      1.0055E-02
   7    9.990       8.766       7.544       6.333       5.161       4.093       3.064       2.046       1.028      1.0181E-02
   8    9.990       8.789       7.594       6.416       5.271       4.178       3.118       2.076       1.041      1.0311E-02
   9    9.990       8.804       7.627       6.465       5.331       4.229       3.154       2.098       1.052      1.0412E-02
  10    9.990       8.812       7.642       6.488       5.357       4.253       3.172       2.109       1.057      1.0465E-02

 HEAD WILL BE SAVED ON UNIT   51 AT END OF TIME STEP   56, STRESS PERIOD    3

 DRAWDOWN WILL BE SAVED ON UNIT   52 AT END OF TIME STEP   56, STRESS PERIOD    3
1
  VOLUMETRIC BUDGET FOR ENTIRE MODEL AT END OF TIME STEP   56, STRESS PERIOD   3
  ------------------------------------------------------------------------------

     CUMULATIVE VOLUMES      L**3       RATES FOR THIS TIME STEP      L**3/T
     ------------------                 ------------------------

           IN:                                      IN:
           ---                                      ---
             STORAGE =       25998.1133               STORAGE =           0.2162
       CONSTANT HEAD =           0.0000         CONSTANT HEAD =           0.0000
               WELLS =           0.0000                 WELLS =           0.0000
     HEAD DEP BOUNDS =       81652.9844       HEAD DEP BOUNDS =         609.8676

            TOTAL IN =      107651.0938              TOTAL IN =         610.0837

          OUT:                                     OUT:
          ----                                     ----
             STORAGE =           0.0000               STORAGE =           0.0000
       CONSTANT HEAD =           0.0000         CONSTANT HEAD =           0.0000
               WELLS =        5600.0000                 WELLS =         100.0000
     HEAD DEP BOUNDS =      102051.5703       HEAD DEP BOUNDS =         510.0878

           TOTAL OUT =      107651.5703             TOTAL OUT =         610.0878

            IN - OUT =          -0.4766              IN - OUT =      -4.0283E-03

 PERCENT DISCREPANCY =          -0.00     PERCENT DISCREPANCY =          -0.00






         TIME SUMMARY AT END OF TIME STEP   56 IN STRESS PERIOD    3
                    SECONDS     MINUTES      HOURS       DAYS        YEARS
                    -----------------------------------------------------------
   TIME STEP LENGTH  86400.      1440.0      24.000      1.0000     2.73785E-03
 STRESS PERIOD TIME 4.83840E+06  80640.      1344.0      56.000     0.15332    
         TOTAL TIME 1.35648E+07 2.26080E+05  3768.0      157.00     0.42984    
1

 SOLVING FOR HEAD 

 OUTPUT CONTROL FOR STRESS PERIOD    3   TIME STEP   57
    SAVE HEAD FOR ALL LAYERS
    SAVE DRAWDOWN FOR ALL LAYERS
    SAVE BUDGET
    PRINT HEAD FOR ALL LAYERS
    PRINT BUDGET
 UBDSV1 SAVING "         STORAGE" ON UNIT  53 AT TIME STEP 57, STRESS PERIOD   3
 UBDSV2 SAVING "   CONSTANT HEAD" ON UNIT  53 AT TIME STEP 57, STRESS PERIOD   3
 UBDSV1 SAVING "FLOW RIGHT FACE " ON UNIT  53 AT TIME STEP 57, STRESS PERIOD   3
 UBDSV1 SAVING "FLOW FRONT FACE " ON UNIT  53 AT TIME STEP 57, STRESS PERIOD   3
1
              HEAD IN LAYER   1 AT END OF TIME STEP  57 IN STRESS PERIOD    3
  ---------------------------------------------------------------------------

            1           2           3           4           5           6           7           8           9          10
 ........................................................................................................................
   1    9.990       8.786       7.592       6.418       5.278       4.178       3.112       2.068       1.036      1.0260E-02
   2    9.990       8.776       7.571       6.385       5.237       4.144       3.090       2.055       1.031      1.0207E-02
   3    9.990       8.759       7.530       6.314       5.140       4.072       3.047       2.033       1.022      1.0115E-02
   4    9.990       8.738       7.478       6.201       4.937       3.959       2.993       2.009       1.012      1.0023E-02
   5    9.989       8.728       7.441       6.075       4.448       3.833       2.956       1.997       1.009      9.9879E-03
   6    9.990       8.742       7.484       6.210       4.947       3.968       3.001       2.015       1.015      1.0054E-02
   7    9.990       8.766       7.544       6.333       5.161       4.093       3.064       2.046       1.028      1.0180E-02
   8    9.990       8.789       7.594       6.416       5.271       4.178       3.118       2.076       1.041      1.0311E-02
   9    9.990       8.804       7.626       6.465       5.331       4.229       3.154       2.098       1.052      1.0411E-02
  10    9.990       8.812       7.642       6.488       5.357       4.253       3.172       2.109       1.057      1.0465E-02

 HEAD WILL BE SAVED ON UNIT   51 AT END OF TIME STEP   57, STRESS PERIOD    3

 DRAWDOWN WILL BE SAVED ON UNIT   52 AT END OF TIME STEP   57, STRESS PERIOD    3
1
  VOLUMETRIC BUDGET FOR ENTIRE MODEL AT END OF TIME STEP   57, STRESS PERIOD   3
  ------------------------------------------------------------------------------

     CUMULATIVE VOLUMES      L**3       RATES FOR THIS TIME STEP      L**3/T
     ------------------                 ------------------------

           IN:                                      IN:
           ---                                      ---
             STORAGE =       25998.3066               STORAGE =           0.1932
       CONSTANT HEAD =           0.0000         CONSTANT HEAD =           0.0000
               WELLS =           0.0000                 WELLS =           0.0000
     HEAD DEP BOUNDS =       82262.8672       HEAD DEP BOUNDS =         609.8791

            TOTAL IN =      108261.1719              TOTAL IN =         610.0723

          OUT:                                     OUT:
          ----                                     ----
             STORAGE =           0.0000               STORAGE =           0.0000
       CONSTANT HEAD =           0.0000         CONSTANT HEAD =           0.0000
               WELLS =        5700.0000                 WELLS =         100.0000
     HEAD DEP BOUNDS =      102561.6484       HEAD DEP BOUNDS =         510.0762

           TOTAL OUT =      108261.6484             TOTAL OUT =         610.0762

            IN - OUT =          -0.4766              IN - OUT =      -3.9062E-03

 PERCENT DISCREPANCY =          -0.00     PERCENT DISCREPANCY =          -0.00






         TIME SUMMARY AT END OF TIME STEP   57 IN STRESS PERIOD    3
                    SECONDS     MINUTES      HOURS       DAYS        YEARS
                    -----------------------------------------------------------
   TIME STEP LENGTH  86400.      1440.0      24.000      1.0000     2.73785E-03
 STRESS PERIOD TIME 4.92480E+06  82080.      1368.0      57.000     0.15606    
         TOTAL TIME 1.36512E+07 2.27520E+05  3792.0      158.00     0.43258    
1

 SOLVING FOR HEAD 

 OUTPUT CONTROL FOR STRESS PERIOD    3   TIME STEP   58
    SAVE HEAD FOR ALL LAYERS
    SAVE DRAWDOWN FOR ALL LAYERS
    SAVE BUDGET
    PRINT HEAD FOR ALL LAYERS
    PRINT BUDGET
 UBDSV1 SAVING "         STORAGE" ON UNIT  53 AT TIME STEP 58, STRESS PERIOD   3
 UBDSV2 SAVING "   CONSTANT HEAD" ON UNIT  53 AT TIME STEP 58, STRESS PERIOD   3
 UBDSV1 SAVING "FLOW RIGHT FACE " ON UNIT  53 AT TIME STEP 58, STRESS PERIOD   3
 UBDSV1 SAVING "FLOW FRONT FACE " ON UNIT  53 AT TIME STEP 58, STRESS PERIOD   3
1
              HEAD IN LAYER   1 AT END OF TIME STEP  58 IN STRESS PERIOD    3
  ---------------------------------------------------------------------------

            1           2           3           4           5           6           7           8           9          10
 ........................................................................................................................
   1    9.990       8.786       7.592       6.418       5.278       4.178       3.112       2.068       1.036      1.0260E-02
   2    9.990       8.776       7.571       6.385       5.237       4.144       3.090       2.055       1.031      1.0206E-02
   3    9.990       8.759       7.530       6.314       5.140       4.072       3.047       2.033       1.022      1.0115E-02
   4    9.990       8.738       7.478       6.201       4.937       3.959       2.992       2.009       1.012      1.0023E-02
   5    9.989       8.728       7.441       6.075       4.448       3.833       2.956       1.997       1.009      9.9877E-03
   6    9.990       8.742       7.484       6.210       4.947       3.968       3.001       2.015       1.015      1.0054E-02
   7    9.990       8.766       7.544       6.333       5.161       4.093       3.064       2.046       1.028      1.0180E-02
   8    9.990       8.789       7.594       6.416       5.271       4.178       3.118       2.076       1.041      1.0311E-02
   9    9.990       8.804       7.626       6.465       5.331       4.229       3.154       2.098       1.052      1.0411E-02
  10    9.990       8.812       7.642       6.488       5.357       4.253       3.172       2.109       1.057      1.0464E-02

 HEAD WILL BE SAVED ON UNIT   51 AT END OF TIME STEP   58, STRESS PERIOD    3

 DRAWDOWN WILL BE SAVED ON UNIT   52 AT END OF TIME STEP   58, STRESS PERIOD    3
1
  VOLUMETRIC BUDGET FOR ENTIRE MODEL AT END OF TIME STEP   58, STRESS PERIOD   3
  ------------------------------------------------------------------------------

     CUMULATIVE VOLUMES      L**3       RATES FOR THIS TIME STEP      L**3/T
     ------------------                 ------------------------

           IN:                                      IN:
           ---                                      ---
             STORAGE =       25998.4785               STORAGE =           0.1723
       CONSTANT HEAD =           0.0000         CONSTANT HEAD =           0.0000
               WELLS =           0.0000                 WELLS =           0.0000
     HEAD DEP BOUNDS =       82872.7578       HEAD DEP BOUNDS =         609.8893

            TOTAL IN =      108871.2344              TOTAL IN =         610.0617

          OUT:                                     OUT:
          ----                                     ----
             STORAGE =           0.0000               STORAGE =           0.0000
       CONSTANT HEAD =           0.0000         CONSTANT HEAD =           0.0000
               WELLS =        5800.0000                 WELLS =         100.0000
     HEAD DEP BOUNDS =      103071.7109       HEAD DEP BOUNDS =         510.0658

           TOTAL OUT =      108871.7109             TOTAL OUT =         610.0658

            IN - OUT =          -0.4766              IN - OUT =      -4.0894E-03

 PERCENT DISCREPANCY =          -0.00     PERCENT DISCREPANCY =          -0.00






         TIME SUMMARY AT END OF TIME STEP   58 IN STRESS PERIOD    3
                    SECONDS     MINUTES      HOURS       DAYS        YEARS
                    -----------------------------------------------------------
   TIME STEP LENGTH  86400.      1440.0      24.000      1.0000     2.73785E-03
 STRESS PERIOD TIME 5.01120E+06  83520.      1392.0      58.000     0.15880    
         TOTAL TIME 1.37376E+07 2.28960E+05  3816.0      159.00     0.43532    
1

 SOLVING FOR HEAD 

 OUTPUT CONTROL FOR STRESS PERIOD    3   TIME STEP   59
    SAVE HEAD FOR ALL LAYERS
    SAVE DRAWDOWN FOR ALL LAYERS
    SAVE BUDGET
    PRINT HEAD FOR ALL LAYERS
    PRINT BUDGET
 UBDSV1 SAVING "         STORAGE" ON UNIT  53 AT TIME STEP 59, STRESS PERIOD   3
 UBDSV2 SAVING "   CONSTANT HEAD" ON UNIT  53 AT TIME STEP 59, STRESS PERIOD   3
 UBDSV1 SAVING "FLOW RIGHT FACE " ON UNIT  53 AT TIME STEP 59, STRESS PERIOD   3
 UBDSV1 SAVING "FLOW FRONT FACE " ON UNIT  53 AT TIME STEP 59, STRESS PERIOD   3
1
              HEAD IN LAYER   1 AT END OF TIME STEP  59 IN STRESS PERIOD    3
  ---------------------------------------------------------------------------

            1           2           3           4           5           6           7           8           9          10
 ........................................................................................................................
   1    9.990       8.786       7.592       6.418       5.277       4.178       3.112       2.068       1.036      1.0260E-02
   2    9.990       8.776       7.571       6.385       5.237       4.144       3.090       2.055       1.031      1.0206E-02
   3    9.990       8.759       7.530       6.314       5.140       4.072       3.047       2.033       1.022      1.0115E-02
   4    9.990       8.738       7.478       6.201       4.937       3.959       2.992       2.009       1.012      1.0023E-02
   5    9.989       8.728       7.441       6.075       4.448       3.832       2.956       1.997       1.009      9.9876E-03
   6    9.990       8.742       7.484       6.209       4.947       3.968       3.001       2.015       1.015      1.0054E-02
   7    9.990       8.766       7.544       6.333       5.161       4.093       3.064       2.046       1.028      1.0180E-02
   8    9.990       8.789       7.594       6.416       5.271       4.178       3.118       2.076       1.041      1.0311E-02
   9    9.990       8.804       7.626       6.465       5.331       4.229       3.154       2.097       1.052      1.0411E-02
  10    9.990       8.812       7.642       6.488       5.357       4.253       3.172       2.109       1.057      1.0464E-02

 HEAD WILL BE SAVED ON UNIT   51 AT END OF TIME STEP   59, STRESS PERIOD    3

 DRAWDOWN WILL BE SAVED ON UNIT   52 AT END OF TIME STEP   59, STRESS PERIOD    3
1
  VOLUMETRIC BUDGET FOR ENTIRE MODEL AT END OF TIME STEP   59, STRESS PERIOD   3
  ------------------------------------------------------------------------------

     CUMULATIVE VOLUMES      L**3       RATES FOR THIS TIME STEP      L**3/T
     ------------------                 ------------------------

           IN:                                      IN:
           ---                                      ---
             STORAGE =       25998.6328               STORAGE =           0.1538
       CONSTANT HEAD =           0.0000         CONSTANT HEAD =           0.0000
               WELLS =           0.0000                 WELLS =           0.0000
     HEAD DEP BOUNDS =       83482.6562       HEAD DEP BOUNDS =         609.8985

            TOTAL IN =      109481.2891              TOTAL IN =         610.0522

          OUT:                                     OUT:
          ----                                     ----
             STORAGE =           0.0000               STORAGE =           0.0000
       CONSTANT HEAD =           0.0000         CONSTANT HEAD =           0.0000
               WELLS =        5900.0000                 WELLS =         100.0000
     HEAD DEP BOUNDS =      103581.7656       HEAD DEP BOUNDS =         510.0566

           TOTAL OUT =      109481.7656             TOTAL OUT =         610.0566

            IN - OUT =          -0.4766              IN - OUT =      -4.3945E-03

 PERCENT DISCREPANCY =          -0.00     PERCENT DISCREPANCY =          -0.00






         TIME SUMMARY AT END OF TIME STEP   59 IN STRESS PERIOD    3
                    SECONDS     MINUTES      HOURS       DAYS        YEARS
                    -----------------------------------------------------------
   TIME STEP LENGTH  86400.      1440.0      24.000      1.0000     2.73785E-03
 STRESS PERIOD TIME 5.09760E+06  84960.      1416.0      59.000     0.16153    
         TOTAL TIME 1.38240E+07 2.30400E+05  3840.0      160.00     0.43806    
1

 SOLVING FOR HEAD 

 OUTPUT CONTROL FOR STRESS PERIOD    3   TIME STEP   60
    SAVE HEAD FOR ALL LAYERS
    SAVE DRAWDOWN FOR ALL LAYERS
    SAVE BUDGET
    PRINT HEAD FOR ALL LAYERS
    PRINT BUDGET
 UBDSV1 SAVING "         STORAGE" ON UNIT  53 AT TIME STEP 60, STRESS PERIOD   3
 UBDSV2 SAVING "   CONSTANT HEAD" ON UNIT  53 AT TIME STEP 60, STRESS PERIOD   3
 UBDSV1 SAVING "FLOW RIGHT FACE " ON UNIT  53 AT TIME STEP 60, STRESS PERIOD   3
 UBDSV1 SAVING "FLOW FRONT FACE " ON UNIT  53 AT TIME STEP 60, STRESS PERIOD   3
1
              HEAD IN LAYER   1 AT END OF TIME STEP  60 IN STRESS PERIOD    3
  ---------------------------------------------------------------------------

            1           2           3           4           5           6           7           8           9          10
 ........................................................................................................................
   1    9.990       8.786       7.592       6.418       5.277       4.178       3.112       2.068       1.036      1.0260E-02
   2    9.990       8.776       7.571       6.385       5.237       4.144       3.089       2.055       1.031      1.0206E-02
   3    9.990       8.759       7.530       6.314       5.140       4.072       3.047       2.033       1.022      1.0115E-02
   4    9.990       8.738       7.478       6.201       4.937       3.958       2.992       2.009       1.012      1.0023E-02
   5    9.989       8.728       7.441       6.075       4.448       3.832       2.956       1.997       1.009      9.9874E-03
   6    9.990       8.742       7.484       6.209       4.946       3.968       3.001       2.015       1.015      1.0054E-02
   7    9.990       8.766       7.544       6.332       5.161       4.093       3.064       2.046       1.028      1.0180E-02
   8    9.990       8.789       7.594       6.416       5.271       4.178       3.118       2.076       1.041      1.0311E-02
   9    9.990       8.804       7.626       6.465       5.331       4.229       3.154       2.097       1.052      1.0411E-02
  10    9.990       8.812       7.642       6.488       5.357       4.252       3.172       2.109       1.057      1.0464E-02

 HEAD WILL BE SAVED ON UNIT   51 AT END OF TIME STEP   60, STRESS PERIOD    3

 DRAWDOWN WILL BE SAVED ON UNIT   52 AT END OF TIME STEP   60, STRESS PERIOD    3
1
  VOLUMETRIC BUDGET FOR ENTIRE MODEL AT END OF TIME STEP   60, STRESS PERIOD   3
  ------------------------------------------------------------------------------

     CUMULATIVE VOLUMES      L**3       RATES FOR THIS TIME STEP      L**3/T
     ------------------                 ------------------------

           IN:                                      IN:
           ---                                      ---
             STORAGE =       25998.7695               STORAGE =           0.1372
       CONSTANT HEAD =           0.0000         CONSTANT HEAD =           0.0000
               WELLS =           0.0000                 WELLS =           0.0000
     HEAD DEP BOUNDS =       84092.5625       HEAD DEP BOUNDS =         609.9067

            TOTAL IN =      110091.3281              TOTAL IN =         610.0439

          OUT:                                     OUT:
          ----                                     ----
             STORAGE =           0.0000               STORAGE =           0.0000
       CONSTANT HEAD =           0.0000         CONSTANT HEAD =           0.0000
               WELLS =        6000.0000                 WELLS =         100.0000
     HEAD DEP BOUNDS =      104091.8125       HEAD DEP BOUNDS =         510.0483

           TOTAL OUT =      110091.8125             TOTAL OUT =         610.0483

            IN - OUT =          -0.4844              IN - OUT =      -4.4556E-03

 PERCENT DISCREPANCY =          -0.00     PERCENT DISCREPANCY =          -0.00






         TIME SUMMARY AT END OF TIME STEP   60 IN STRESS PERIOD    3
                    SECONDS     MINUTES      HOURS       DAYS        YEARS
                    -----------------------------------------------------------
   TIME STEP LENGTH  86400.      1440.0      24.000      1.0000     2.73785E-03
 STRESS PERIOD TIME 5.18400E+06  86400.      1440.0      60.000     0.16427    
         TOTAL TIME 1.39104E+07 2.31840E+05  3864.0      161.00     0.44079    
1

 SOLVING FOR HEAD 

 OUTPUT CONTROL FOR STRESS PERIOD    3   TIME STEP   61
    SAVE HEAD FOR ALL LAYERS
    SAVE DRAWDOWN FOR ALL LAYERS
    SAVE BUDGET
    PRINT HEAD FOR ALL LAYERS
    PRINT BUDGET
 UBDSV1 SAVING "         STORAGE" ON UNIT  53 AT TIME STEP 61, STRESS PERIOD   3
 UBDSV2 SAVING "   CONSTANT HEAD" ON UNIT  53 AT TIME STEP 61, STRESS PERIOD   3
 UBDSV1 SAVING "FLOW RIGHT FACE " ON UNIT  53 AT TIME STEP 61, STRESS PERIOD   3
 UBDSV1 SAVING "FLOW FRONT FACE " ON UNIT  53 AT TIME STEP 61, STRESS PERIOD   3
1
              HEAD IN LAYER   1 AT END OF TIME STEP  61 IN STRESS PERIOD    3
  ---------------------------------------------------------------------------

            1           2           3           4           5           6           7           8           9          10
 ........................................................................................................................
   1    9.990       8.786       7.592       6.418       5.277       4.178       3.112       2.068       1.036      1.0260E-02
   2    9.990       8.776       7.571       6.385       5.236       4.144       3.089       2.055       1.031      1.0206E-02
   3    9.990       8.759       7.530       6.314       5.140       4.072       3.047       2.033       1.022      1.0114E-02
   4    9.990       8.738       7.478       6.201       4.937       3.958       2.992       2.009       1.012      1.0022E-02
   5    9.989       8.728       7.441       6.075       4.448       3.832       2.956       1.997       1.009      9.9872E-03
   6    9.990       8.742       7.484       6.209       4.946       3.968       3.001       2.015       1.015      1.0054E-02
   7    9.990       8.766       7.544       6.332       5.161       4.093       3.064       2.046       1.028      1.0180E-02
   8    9.990       8.789       7.594       6.416       5.271       4.178       3.118       2.076       1.041      1.0311E-02
   9    9.990       8.804       7.626       6.465       5.330       4.229       3.154       2.097       1.052      1.0411E-02
  10    9.990       8.812       7.642       6.488       5.357       4.252       3.172       2.109       1.057      1.0464E-02

 HEAD WILL BE SAVED ON UNIT   51 AT END OF TIME STEP   61, STRESS PERIOD    3

 DRAWDOWN WILL BE SAVED ON UNIT   52 AT END OF TIME STEP   61, STRESS PERIOD    3
1
  VOLUMETRIC BUDGET FOR ENTIRE MODEL AT END OF TIME STEP   61, STRESS PERIOD   3
  ------------------------------------------------------------------------------

     CUMULATIVE VOLUMES      L**3       RATES FOR THIS TIME STEP      L**3/T
     ------------------                 ------------------------

           IN:                                      IN:
           ---                                      ---
             STORAGE =       25998.8926               STORAGE =           0.1226
       CONSTANT HEAD =           0.0000         CONSTANT HEAD =           0.0000
               WELLS =           0.0000                 WELLS =           0.0000
     HEAD DEP BOUNDS =       84702.4766       HEAD DEP BOUNDS =         609.9139

            TOTAL IN =      110701.3672              TOTAL IN =         610.0366

          OUT:                                     OUT:
          ----                                     ----
             STORAGE =           0.0000               STORAGE =           0.0000
       CONSTANT HEAD =           0.0000         CONSTANT HEAD =           0.0000
               WELLS =        6100.0000                 WELLS =         100.0000
     HEAD DEP BOUNDS =      104601.8516       HEAD DEP BOUNDS =         510.0410

           TOTAL OUT =      110701.8516             TOTAL OUT =         610.0410

            IN - OUT =          -0.4844              IN - OUT =      -4.4556E-03

 PERCENT DISCREPANCY =          -0.00     PERCENT DISCREPANCY =          -0.00






         TIME SUMMARY AT END OF TIME STEP   61 IN STRESS PERIOD    3
                    SECONDS     MINUTES      HOURS       DAYS        YEARS
                    -----------------------------------------------------------
   TIME STEP LENGTH  86400.      1440.0      24.000      1.0000     2.73785E-03
 STRESS PERIOD TIME 5.27040E+06  87840.      1464.0      61.000     0.16701    
         TOTAL TIME 1.39968E+07 2.33280E+05  3888.0      162.00     0.44353    
1

 SOLVING FOR HEAD 

 OUTPUT CONTROL FOR STRESS PERIOD    3   TIME STEP   62
    SAVE HEAD FOR ALL LAYERS
    SAVE DRAWDOWN FOR ALL LAYERS
    SAVE BUDGET
    PRINT HEAD FOR ALL LAYERS
    PRINT BUDGET
 UBDSV1 SAVING "         STORAGE" ON UNIT  53 AT TIME STEP 62, STRESS PERIOD   3
 UBDSV2 SAVING "   CONSTANT HEAD" ON UNIT  53 AT TIME STEP 62, STRESS PERIOD   3
 UBDSV1 SAVING "FLOW RIGHT FACE " ON UNIT  53 AT TIME STEP 62, STRESS PERIOD   3
 UBDSV1 SAVING "FLOW FRONT FACE " ON UNIT  53 AT TIME STEP 62, STRESS PERIOD   3
1
              HEAD IN LAYER   1 AT END OF TIME STEP  62 IN STRESS PERIOD    3
  ---------------------------------------------------------------------------

            1           2           3           4           5           6           7           8           9          10
 ........................................................................................................................
   1    9.990       8.786       7.591       6.418       5.277       4.178       3.112       2.068       1.036      1.0260E-02
   2    9.990       8.776       7.571       6.385       5.236       4.144       3.089       2.055       1.031      1.0206E-02
   3    9.990       8.759       7.530       6.314       5.140       4.072       3.047       2.033       1.022      1.0114E-02
   4    9.990       8.738       7.478       6.201       4.937       3.958       2.992       2.009       1.012      1.0022E-02
   5    9.989       8.728       7.441       6.075       4.448       3.832       2.956       1.997       1.009      9.9871E-03
   6    9.990       8.742       7.484       6.209       4.946       3.968       3.001       2.015       1.015      1.0054E-02
   7    9.990       8.766       7.544       6.332       5.161       4.093       3.064       2.046       1.028      1.0180E-02
   8    9.990       8.788       7.594       6.416       5.271       4.177       3.118       2.076       1.041      1.0310E-02
   9    9.990       8.804       7.626       6.465       5.330       4.229       3.154       2.097       1.052      1.0411E-02
  10    9.990       8.812       7.642       6.488       5.357       4.252       3.172       2.109       1.057      1.0464E-02

 HEAD WILL BE SAVED ON UNIT   51 AT END OF TIME STEP   62, STRESS PERIOD    3

 DRAWDOWN WILL BE SAVED ON UNIT   52 AT END OF TIME STEP   62, STRESS PERIOD    3
1
  VOLUMETRIC BUDGET FOR ENTIRE MODEL AT END OF TIME STEP   62, STRESS PERIOD   3
  ------------------------------------------------------------------------------

     CUMULATIVE VOLUMES      L**3       RATES FOR THIS TIME STEP      L**3/T
     ------------------                 ------------------------

           IN:                                      IN:
           ---                                      ---
             STORAGE =       25999.0020               STORAGE =           0.1094
       CONSTANT HEAD =           0.0000         CONSTANT HEAD =           0.0000
               WELLS =           0.0000                 WELLS =           0.0000
     HEAD DEP BOUNDS =       85312.3984       HEAD DEP BOUNDS =         609.9205

            TOTAL IN =      111311.3984              TOTAL IN =         610.0298

          OUT:                                     OUT:
          ----                                     ----
             STORAGE =           0.0000               STORAGE =           0.0000
       CONSTANT HEAD =           0.0000         CONSTANT HEAD =           0.0000
               WELLS =        6200.0000                 WELLS =         100.0000
     HEAD DEP BOUNDS =      105111.8828       HEAD DEP BOUNDS =         510.0344

           TOTAL OUT =      111311.8828             TOTAL OUT =         610.0344

            IN - OUT =          -0.4844              IN - OUT =      -4.5776E-03

 PERCENT DISCREPANCY =          -0.00     PERCENT DISCREPANCY =          -0.00






         TIME SUMMARY AT END OF TIME STEP   62 IN STRESS PERIOD    3
                    SECONDS     MINUTES      HOURS       DAYS        YEARS
                    -----------------------------------------------------------
   TIME STEP LENGTH  86400.      1440.0      24.000      1.0000     2.73785E-03
 STRESS PERIOD TIME 5.35680E+06  89280.      1488.0      62.000     0.16975    
         TOTAL TIME 1.40832E+07 2.34720E+05  3912.0      163.00     0.44627    
1

 SOLVING FOR HEAD 

 OUTPUT CONTROL FOR STRESS PERIOD    3   TIME STEP   63
    SAVE HEAD FOR ALL LAYERS
    SAVE DRAWDOWN FOR ALL LAYERS
    SAVE BUDGET
    PRINT HEAD FOR ALL LAYERS
    PRINT BUDGET
 UBDSV1 SAVING "         STORAGE" ON UNIT  53 AT TIME STEP 63, STRESS PERIOD   3
 UBDSV2 SAVING "   CONSTANT HEAD" ON UNIT  53 AT TIME STEP 63, STRESS PERIOD   3
 UBDSV1 SAVING "FLOW RIGHT FACE " ON UNIT  53 AT TIME STEP 63, STRESS PERIOD   3
 UBDSV1 SAVING "FLOW FRONT FACE " ON UNIT  53 AT TIME STEP 63, STRESS PERIOD   3
1
              HEAD IN LAYER   1 AT END OF TIME STEP  63 IN STRESS PERIOD    3
  ---------------------------------------------------------------------------

            1           2           3           4           5           6           7           8           9          10
 ........................................................................................................................
   1    9.990       8.786       7.591       6.418       5.277       4.178       3.112       2.068       1.036      1.0259E-02
   2    9.990       8.776       7.571       6.385       5.236       4.144       3.089       2.055       1.031      1.0206E-02
   3    9.990       8.759       7.530       6.314       5.140       4.072       3.047       2.033       1.022      1.0114E-02
   4    9.990       8.738       7.478       6.201       4.937       3.958       2.992       2.009       1.012      1.0022E-02
   5    9.989       8.728       7.441       6.075       4.447       3.832       2.956       1.997       1.009      9.9870E-03
   6    9.990       8.742       7.484       6.209       4.946       3.968       3.001       2.015       1.015      1.0053E-02
   7    9.990       8.766       7.544       6.332       5.161       4.093       3.064       2.046       1.028      1.0179E-02
   8    9.990       8.788       7.594       6.416       5.271       4.177       3.118       2.076       1.041      1.0310E-02
   9    9.990       8.804       7.626       6.465       5.330       4.229       3.154       2.097       1.052      1.0411E-02
  10    9.990       8.812       7.642       6.488       5.357       4.252       3.172       2.109       1.057      1.0464E-02

 HEAD WILL BE SAVED ON UNIT   51 AT END OF TIME STEP   63, STRESS PERIOD    3

 DRAWDOWN WILL BE SAVED ON UNIT   52 AT END OF TIME STEP   63, STRESS PERIOD    3
1
  VOLUMETRIC BUDGET FOR ENTIRE MODEL AT END OF TIME STEP   63, STRESS PERIOD   3
  ------------------------------------------------------------------------------

     CUMULATIVE VOLUMES      L**3       RATES FOR THIS TIME STEP      L**3/T
     ------------------                 ------------------------

           IN:                                      IN:
           ---                                      ---
             STORAGE =       25999.0996               STORAGE =       9.7650E-02
       CONSTANT HEAD =           0.0000         CONSTANT HEAD =           0.0000
               WELLS =           0.0000                 WELLS =           0.0000
     HEAD DEP BOUNDS =       85922.3281       HEAD DEP BOUNDS =         609.9263

            TOTAL IN =      111921.4297              TOTAL IN =         610.0240

          OUT:                                     OUT:
          ----                                     ----
             STORAGE =           0.0000               STORAGE =           0.0000
       CONSTANT HEAD =           0.0000         CONSTANT HEAD =           0.0000
               WELLS =        6300.0000                 WELLS =         100.0000
     HEAD DEP BOUNDS =      105621.9141       HEAD DEP BOUNDS =         510.0285

           TOTAL OUT =      111921.9141             TOTAL OUT =         610.0286

            IN - OUT =          -0.4844              IN - OUT =      -4.5776E-03

 PERCENT DISCREPANCY =          -0.00     PERCENT DISCREPANCY =          -0.00






         TIME SUMMARY AT END OF TIME STEP   63 IN STRESS PERIOD    3
                    SECONDS     MINUTES      HOURS       DAYS        YEARS
                    -----------------------------------------------------------
   TIME STEP LENGTH  86400.      1440.0      24.000      1.0000     2.73785E-03
 STRESS PERIOD TIME 5.44320E+06  90720.      1512.0      63.000     0.17248    
         TOTAL TIME 1.41696E+07 2.36160E+05  3936.0      164.00     0.44901    
1

 SOLVING FOR HEAD 

 OUTPUT CONTROL FOR STRESS PERIOD    3   TIME STEP   64
    SAVE HEAD FOR ALL LAYERS
    SAVE DRAWDOWN FOR ALL LAYERS
    SAVE BUDGET
    PRINT HEAD FOR ALL LAYERS
    PRINT BUDGET
 UBDSV1 SAVING "         STORAGE" ON UNIT  53 AT TIME STEP 64, STRESS PERIOD   3
 UBDSV2 SAVING "   CONSTANT HEAD" ON UNIT  53 AT TIME STEP 64, STRESS PERIOD   3
 UBDSV1 SAVING "FLOW RIGHT FACE " ON UNIT  53 AT TIME STEP 64, STRESS PERIOD   3
 UBDSV1 SAVING "FLOW FRONT FACE " ON UNIT  53 AT TIME STEP 64, STRESS PERIOD   3
1
              HEAD IN LAYER   1 AT END OF TIME STEP  64 IN STRESS PERIOD    3
  ---------------------------------------------------------------------------

            1           2           3           4           5           6           7           8           9          10
 ........................................................................................................................
   1    9.990       8.786       7.591       6.418       5.277       4.178       3.112       2.068       1.036      1.0259E-02
   2    9.990       8.776       7.571       6.385       5.236       4.144       3.089       2.055       1.031      1.0206E-02
   3    9.990       8.759       7.530       6.314       5.140       4.072       3.047       2.033       1.022      1.0114E-02
   4    9.990       8.738       7.478       6.201       4.937       3.958       2.992       2.009       1.012      1.0022E-02
   5    9.989       8.728       7.441       6.075       4.447       3.832       2.955       1.997       1.009      9.9869E-03
   6    9.990       8.742       7.484       6.209       4.946       3.968       3.001       2.015       1.015      1.0053E-02
   7    9.990       8.766       7.544       6.332       5.161       4.092       3.064       2.046       1.028      1.0179E-02
   8    9.990       8.788       7.594       6.415       5.271       4.177       3.118       2.076       1.041      1.0310E-02
   9    9.990       8.804       7.626       6.465       5.330       4.228       3.154       2.097       1.051      1.0410E-02
  10    9.990       8.812       7.642       6.488       5.357       4.252       3.172       2.109       1.057      1.0463E-02

 HEAD WILL BE SAVED ON UNIT   51 AT END OF TIME STEP   64, STRESS PERIOD    3

 DRAWDOWN WILL BE SAVED ON UNIT   52 AT END OF TIME STEP   64, STRESS PERIOD    3
1
  VOLUMETRIC BUDGET FOR ENTIRE MODEL AT END OF TIME STEP   64, STRESS PERIOD   3
  ------------------------------------------------------------------------------

     CUMULATIVE VOLUMES      L**3       RATES FOR THIS TIME STEP      L**3/T
     ------------------                 ------------------------

           IN:                                      IN:
           ---                                      ---
             STORAGE =       25999.1875               STORAGE =       8.7298E-02
       CONSTANT HEAD =           0.0000         CONSTANT HEAD =           0.0000
               WELLS =           0.0000                 WELLS =           0.0000
     HEAD DEP BOUNDS =       86532.2578       HEAD DEP BOUNDS =         609.9315

            TOTAL IN =      112531.4453              TOTAL IN =         610.0187

          OUT:                                     OUT:
          ----                                     ----
             STORAGE =           0.0000               STORAGE =           0.0000
       CONSTANT HEAD =           0.0000         CONSTANT HEAD =           0.0000
               WELLS =        6400.0000                 WELLS =         100.0000
     HEAD DEP BOUNDS =      106131.9375       HEAD DEP BOUNDS =         510.0233

           TOTAL OUT =      112531.9375             TOTAL OUT =         610.0233

            IN - OUT =          -0.4922              IN - OUT =      -4.5776E-03

 PERCENT DISCREPANCY =          -0.00     PERCENT DISCREPANCY =          -0.00






         TIME SUMMARY AT END OF TIME STEP   64 IN STRESS PERIOD    3
                    SECONDS     MINUTES      HOURS       DAYS        YEARS
                    -----------------------------------------------------------
   TIME STEP LENGTH  86400.      1440.0      24.000      1.0000     2.73785E-03
 STRESS PERIOD TIME 5.52960E+06  92160.      1536.0      64.000     0.17522    
         TOTAL TIME 1.42560E+07 2.37600E+05  3960.0      165.00     0.45175    
1

 SOLVING FOR HEAD 

 OUTPUT CONTROL FOR STRESS PERIOD    3   TIME STEP   65
    SAVE HEAD FOR ALL LAYERS
    SAVE DRAWDOWN FOR ALL LAYERS
    SAVE BUDGET
    PRINT HEAD FOR ALL LAYERS
    PRINT BUDGET
 UBDSV1 SAVING "         STORAGE" ON UNIT  53 AT TIME STEP 65, STRESS PERIOD   3
 UBDSV2 SAVING "   CONSTANT HEAD" ON UNIT  53 AT TIME STEP 65, STRESS PERIOD   3
 UBDSV1 SAVING "FLOW RIGHT FACE " ON UNIT  53 AT TIME STEP 65, STRESS PERIOD   3
 UBDSV1 SAVING "FLOW FRONT FACE " ON UNIT  53 AT TIME STEP 65, STRESS PERIOD   3
1
              HEAD IN LAYER   1 AT END OF TIME STEP  65 IN STRESS PERIOD    3
  ---------------------------------------------------------------------------

            1           2           3           4           5           6           7           8           9          10
 ........................................................................................................................
   1    9.990       8.786       7.591       6.418       5.277       4.178       3.112       2.068       1.036      1.0259E-02
   2    9.990       8.776       7.571       6.385       5.236       4.144       3.089       2.055       1.031      1.0205E-02
   3    9.990       8.759       7.530       6.314       5.140       4.072       3.047       2.033       1.022      1.0114E-02
   4    9.990       8.738       7.478       6.201       4.937       3.958       2.992       2.009       1.012      1.0022E-02
   5    9.989       8.728       7.441       6.075       4.447       3.832       2.955       1.997       1.009      9.9868E-03
   6    9.990       8.742       7.484       6.209       4.946       3.968       3.000       2.015       1.015      1.0053E-02
   7    9.990       8.766       7.544       6.332       5.161       4.092       3.064       2.046       1.028      1.0179E-02
   8    9.990       8.788       7.594       6.415       5.271       4.177       3.118       2.075       1.041      1.0310E-02
   9    9.990       8.804       7.626       6.465       5.330       4.228       3.154       2.097       1.051      1.0410E-02
  10    9.990       8.812       7.642       6.488       5.357       4.252       3.172       2.109       1.057      1.0463E-02

 HEAD WILL BE SAVED ON UNIT   51 AT END OF TIME STEP   65, STRESS PERIOD    3

 DRAWDOWN WILL BE SAVED ON UNIT   52 AT END OF TIME STEP   65, STRESS PERIOD    3
1
  VOLUMETRIC BUDGET FOR ENTIRE MODEL AT END OF TIME STEP   65, STRESS PERIOD   3
  ------------------------------------------------------------------------------

     CUMULATIVE VOLUMES      L**3       RATES FOR THIS TIME STEP      L**3/T
     ------------------                 ------------------------

           IN:                                      IN:
           ---                                      ---
             STORAGE =       25999.2656               STORAGE =       7.7924E-02
       CONSTANT HEAD =           0.0000         CONSTANT HEAD =           0.0000
               WELLS =           0.0000                 WELLS =           0.0000
     HEAD DEP BOUNDS =       87142.1953       HEAD DEP BOUNDS =         609.9361

            TOTAL IN =      113141.4609              TOTAL IN =         610.0140

          OUT:                                     OUT:
          ----                                     ----
             STORAGE =           0.0000               STORAGE =           0.0000
       CONSTANT HEAD =           0.0000         CONSTANT HEAD =           0.0000
               WELLS =        6500.0000                 WELLS =         100.0000
     HEAD DEP BOUNDS =      106641.9531       HEAD DEP BOUNDS =         510.0186

           TOTAL OUT =      113141.9531             TOTAL OUT =         610.0186

            IN - OUT =          -0.4922              IN - OUT =      -4.5776E-03

 PERCENT DISCREPANCY =          -0.00     PERCENT DISCREPANCY =          -0.00






         TIME SUMMARY AT END OF TIME STEP   65 IN STRESS PERIOD    3
                    SECONDS     MINUTES      HOURS       DAYS        YEARS
                    -----------------------------------------------------------
   TIME STEP LENGTH  86400.      1440.0      24.000      1.0000     2.73785E-03
 STRESS PERIOD TIME 5.61600E+06  93600.      1560.0      65.000     0.17796    
         TOTAL TIME 1.43424E+07 2.39040E+05  3984.0      166.00     0.45448    
1

 SOLVING FOR HEAD 

 OUTPUT CONTROL FOR STRESS PERIOD    3   TIME STEP   66
    SAVE HEAD FOR ALL LAYERS
    SAVE DRAWDOWN FOR ALL LAYERS
    SAVE BUDGET
    PRINT HEAD FOR ALL LAYERS
    PRINT BUDGET
 UBDSV1 SAVING "         STORAGE" ON UNIT  53 AT TIME STEP 66, STRESS PERIOD   3
 UBDSV2 SAVING "   CONSTANT HEAD" ON UNIT  53 AT TIME STEP 66, STRESS PERIOD   3
 UBDSV1 SAVING "FLOW RIGHT FACE " ON UNIT  53 AT TIME STEP 66, STRESS PERIOD   3
 UBDSV1 SAVING "FLOW FRONT FACE " ON UNIT  53 AT TIME STEP 66, STRESS PERIOD   3
1
              HEAD IN LAYER   1 AT END OF TIME STEP  66 IN STRESS PERIOD    3
  ---------------------------------------------------------------------------

            1           2           3           4           5           6           7           8           9          10
 ........................................................................................................................
   1    9.990       8.786       7.591       6.418       5.277       4.178       3.111       2.068       1.036      1.0259E-02
   2    9.990       8.776       7.571       6.385       5.236       4.144       3.089       2.055       1.031      1.0205E-02
   3    9.990       8.759       7.530       6.314       5.140       4.072       3.047       2.033       1.022      1.0114E-02
   4    9.990       8.738       7.477       6.201       4.936       3.958       2.992       2.009       1.012      1.0022E-02
   5    9.989       8.728       7.441       6.075       4.447       3.832       2.955       1.997       1.009      9.9867E-03
   6    9.990       8.742       7.484       6.209       4.946       3.968       3.000       2.015       1.015      1.0053E-02
   7    9.990       8.766       7.544       6.332       5.160       4.092       3.064       2.046       1.028      1.0179E-02
   8    9.990       8.788       7.594       6.415       5.271       4.177       3.118       2.075       1.041      1.0310E-02
   9    9.990       8.804       7.626       6.465       5.330       4.228       3.154       2.097       1.051      1.0410E-02
  10    9.990       8.812       7.642       6.488       5.357       4.252       3.172       2.109       1.057      1.0463E-02

 HEAD WILL BE SAVED ON UNIT   51 AT END OF TIME STEP   66, STRESS PERIOD    3

 DRAWDOWN WILL BE SAVED ON UNIT   52 AT END OF TIME STEP   66, STRESS PERIOD    3
1
  VOLUMETRIC BUDGET FOR ENTIRE MODEL AT END OF TIME STEP   66, STRESS PERIOD   3
  ------------------------------------------------------------------------------

     CUMULATIVE VOLUMES      L**3       RATES FOR THIS TIME STEP      L**3/T
     ------------------                 ------------------------

           IN:                                      IN:
           ---                                      ---
             STORAGE =       25999.3359               STORAGE =       6.9625E-02
       CONSTANT HEAD =           0.0000         CONSTANT HEAD =           0.0000
               WELLS =           0.0000                 WELLS =           0.0000
     HEAD DEP BOUNDS =       87752.1328       HEAD DEP BOUNDS =         609.9402

            TOTAL IN =      113751.4688              TOTAL IN =         610.0099

          OUT:                                     OUT:
          ----                                     ----
             STORAGE =           0.0000               STORAGE =           0.0000
       CONSTANT HEAD =           0.0000         CONSTANT HEAD =           0.0000
               WELLS =        6600.0000                 WELLS =         100.0000
     HEAD DEP BOUNDS =      107151.9688       HEAD DEP BOUNDS =         510.0144

           TOTAL OUT =      113751.9688             TOTAL OUT =         610.0144

            IN - OUT =          -0.5000              IN - OUT =      -4.5166E-03

 PERCENT DISCREPANCY =          -0.00     PERCENT DISCREPANCY =          -0.00






         TIME SUMMARY AT END OF TIME STEP   66 IN STRESS PERIOD    3
                    SECONDS     MINUTES      HOURS       DAYS        YEARS
                    -----------------------------------------------------------
   TIME STEP LENGTH  86400.      1440.0      24.000      1.0000     2.73785E-03
 STRESS PERIOD TIME 5.70240E+06  95040.      1584.0      66.000     0.18070    
         TOTAL TIME 1.44288E+07 2.40480E+05  4008.0      167.00     0.45722    
1

 SOLVING FOR HEAD 

 OUTPUT CONTROL FOR STRESS PERIOD    3   TIME STEP   67
    SAVE HEAD FOR ALL LAYERS
    SAVE DRAWDOWN FOR ALL LAYERS
    SAVE BUDGET
    PRINT HEAD FOR ALL LAYERS
    PRINT BUDGET
 UBDSV1 SAVING "         STORAGE" ON UNIT  53 AT TIME STEP 67, STRESS PERIOD   3
 UBDSV2 SAVING "   CONSTANT HEAD" ON UNIT  53 AT TIME STEP 67, STRESS PERIOD   3
 UBDSV1 SAVING "FLOW RIGHT FACE " ON UNIT  53 AT TIME STEP 67, STRESS PERIOD   3
 UBDSV1 SAVING "FLOW FRONT FACE " ON UNIT  53 AT TIME STEP 67, STRESS PERIOD   3
1
              HEAD IN LAYER   1 AT END OF TIME STEP  67 IN STRESS PERIOD    3
  ---------------------------------------------------------------------------

            1           2           3           4           5           6           7           8           9          10
 ........................................................................................................................
   1    9.990       8.786       7.591       6.418       5.277       4.177       3.111       2.068       1.036      1.0259E-02
   2    9.990       8.776       7.571       6.385       5.236       4.144       3.089       2.055       1.031      1.0205E-02
   3    9.990       8.759       7.530       6.314       5.140       4.072       3.047       2.033       1.022      1.0114E-02
   4    9.990       8.738       7.477       6.201       4.936       3.958       2.992       2.009       1.012      1.0022E-02
   5    9.989       8.728       7.441       6.075       4.447       3.832       2.955       1.997       1.009      9.9866E-03
   6    9.990       8.742       7.484       6.209       4.946       3.968       3.000       2.015       1.015      1.0053E-02
   7    9.990       8.766       7.544       6.332       5.160       4.092       3.064       2.046       1.028      1.0179E-02
   8    9.990       8.788       7.594       6.415       5.271       4.177       3.118       2.075       1.041      1.0310E-02
   9    9.990       8.804       7.626       6.465       5.330       4.228       3.154       2.097       1.051      1.0410E-02
  10    9.990       8.812       7.642       6.488       5.357       4.252       3.172       2.109       1.057      1.0463E-02

 HEAD WILL BE SAVED ON UNIT   51 AT END OF TIME STEP   67, STRESS PERIOD    3

 DRAWDOWN WILL BE SAVED ON UNIT   52 AT END OF TIME STEP   67, STRESS PERIOD    3
1
  VOLUMETRIC BUDGET FOR ENTIRE MODEL AT END OF TIME STEP   67, STRESS PERIOD   3
  ------------------------------------------------------------------------------

     CUMULATIVE VOLUMES      L**3       RATES FOR THIS TIME STEP      L**3/T
     ------------------                 ------------------------

           IN:                                      IN:
           ---                                      ---
             STORAGE =       25999.3984               STORAGE =       6.2187E-02
       CONSTANT HEAD =           0.0000         CONSTANT HEAD =           0.0000
               WELLS =           0.0000                 WELLS =           0.0000
     HEAD DEP BOUNDS =       88362.0781       HEAD DEP BOUNDS =         609.9440

            TOTAL IN =      114361.4766              TOTAL IN =         610.0062

          OUT:                                     OUT:
          ----                                     ----
             STORAGE =           0.0000               STORAGE =           0.0000
       CONSTANT HEAD =           0.0000         CONSTANT HEAD =           0.0000
               WELLS =        6700.0000                 WELLS =         100.0000
     HEAD DEP BOUNDS =      107661.9766       HEAD DEP BOUNDS =         510.0107

           TOTAL OUT =      114361.9766             TOTAL OUT =         610.0107

            IN - OUT =          -0.5000              IN - OUT =      -4.5776E-03

 PERCENT DISCREPANCY =          -0.00     PERCENT DISCREPANCY =          -0.00






         TIME SUMMARY AT END OF TIME STEP   67 IN STRESS PERIOD    3
                    SECONDS     MINUTES      HOURS       DAYS        YEARS
                    -----------------------------------------------------------
   TIME STEP LENGTH  86400.      1440.0      24.000      1.0000     2.73785E-03
 STRESS PERIOD TIME 5.78880E+06  96480.      1608.0      67.000     0.18344    
         TOTAL TIME 1.45152E+07 2.41920E+05  4032.0      168.00     0.45996    
1

 SOLVING FOR HEAD 

 OUTPUT CONTROL FOR STRESS PERIOD    3   TIME STEP   68
    SAVE HEAD FOR ALL LAYERS
    SAVE DRAWDOWN FOR ALL LAYERS
    SAVE BUDGET
    PRINT HEAD FOR ALL LAYERS
    PRINT BUDGET
 UBDSV1 SAVING "         STORAGE" ON UNIT  53 AT TIME STEP 68, STRESS PERIOD   3
 UBDSV2 SAVING "   CONSTANT HEAD" ON UNIT  53 AT TIME STEP 68, STRESS PERIOD   3
 UBDSV1 SAVING "FLOW RIGHT FACE " ON UNIT  53 AT TIME STEP 68, STRESS PERIOD   3
 UBDSV1 SAVING "FLOW FRONT FACE " ON UNIT  53 AT TIME STEP 68, STRESS PERIOD   3
1
              HEAD IN LAYER   1 AT END OF TIME STEP  68 IN STRESS PERIOD    3
  ---------------------------------------------------------------------------

            1           2           3           4           5           6           7           8           9          10
 ........................................................................................................................
   1    9.990       8.786       7.591       6.418       5.277       4.177       3.111       2.068       1.036      1.0259E-02
   2    9.990       8.776       7.571       6.385       5.236       4.144       3.089       2.055       1.031      1.0205E-02
   3    9.990       8.759       7.530       6.314       5.140       4.072       3.047       2.033       1.021      1.0114E-02
   4    9.990       8.738       7.477       6.201       4.936       3.958       2.992       2.009       1.012      1.0022E-02
   5    9.989       8.728       7.441       6.075       4.447       3.832       2.955       1.997       1.009      9.9866E-03
   6    9.990       8.742       7.484       6.209       4.946       3.968       3.000       2.014       1.015      1.0053E-02
   7    9.990       8.766       7.544       6.332       5.160       4.092       3.064       2.046       1.028      1.0179E-02
   8    9.990       8.788       7.594       6.415       5.271       4.177       3.118       2.075       1.041      1.0310E-02
   9    9.990       8.804       7.626       6.465       5.330       4.228       3.154       2.097       1.051      1.0410E-02
  10    9.990       8.812       7.642       6.488       5.357       4.252       3.172       2.109       1.057      1.0463E-02

 HEAD WILL BE SAVED ON UNIT   51 AT END OF TIME STEP   68, STRESS PERIOD    3

 DRAWDOWN WILL BE SAVED ON UNIT   52 AT END OF TIME STEP   68, STRESS PERIOD    3
1
  VOLUMETRIC BUDGET FOR ENTIRE MODEL AT END OF TIME STEP   68, STRESS PERIOD   3
  ------------------------------------------------------------------------------

     CUMULATIVE VOLUMES      L**3       RATES FOR THIS TIME STEP      L**3/T
     ------------------                 ------------------------

           IN:                                      IN:
           ---                                      ---
             STORAGE =       25999.4531               STORAGE =       5.5388E-02
       CONSTANT HEAD =           0.0000         CONSTANT HEAD =           0.0000
               WELLS =           0.0000                 WELLS =           0.0000
     HEAD DEP BOUNDS =       88972.0234       HEAD DEP BOUNDS =         609.9473

            TOTAL IN =      114971.4766              TOTAL IN =         610.0026

          OUT:                                     OUT:
          ----                                     ----
             STORAGE =           0.0000               STORAGE =           0.0000
       CONSTANT HEAD =           0.0000         CONSTANT HEAD =           0.0000
               WELLS =        6800.0000                 WELLS =         100.0000
     HEAD DEP BOUNDS =      108171.9844       HEAD DEP BOUNDS =         510.0074

           TOTAL OUT =      114971.9844             TOTAL OUT =         610.0074

            IN - OUT =          -0.5078              IN - OUT =      -4.7607E-03

 PERCENT DISCREPANCY =          -0.00     PERCENT DISCREPANCY =          -0.00






         TIME SUMMARY AT END OF TIME STEP   68 IN STRESS PERIOD    3
                    SECONDS     MINUTES      HOURS       DAYS        YEARS
                    -----------------------------------------------------------
   TIME STEP LENGTH  86400.      1440.0      24.000      1.0000     2.73785E-03
 STRESS PERIOD TIME 5.87520E+06  97920.      1632.0      68.000     0.18617    
         TOTAL TIME 1.46016E+07 2.43360E+05  4056.0      169.00     0.46270    
1

 SOLVING FOR HEAD 

 OUTPUT CONTROL FOR STRESS PERIOD    3   TIME STEP   69
    SAVE HEAD FOR ALL LAYERS
    SAVE DRAWDOWN FOR ALL LAYERS
    SAVE BUDGET
    PRINT HEAD FOR ALL LAYERS
    PRINT BUDGET
 UBDSV1 SAVING "         STORAGE" ON UNIT  53 AT TIME STEP 69, STRESS PERIOD   3
 UBDSV2 SAVING "   CONSTANT HEAD" ON UNIT  53 AT TIME STEP 69, STRESS PERIOD   3
 UBDSV1 SAVING "FLOW RIGHT FACE " ON UNIT  53 AT TIME STEP 69, STRESS PERIOD   3
 UBDSV1 SAVING "FLOW FRONT FACE " ON UNIT  53 AT TIME STEP 69, STRESS PERIOD   3
1
              HEAD IN LAYER   1 AT END OF TIME STEP  69 IN STRESS PERIOD    3
  ---------------------------------------------------------------------------

            1           2           3           4           5           6           7           8           9          10
 ........................................................................................................................
   1    9.990       8.786       7.591       6.418       5.277       4.177       3.111       2.068       1.036      1.0259E-02
   2    9.990       8.776       7.571       6.385       5.236       4.144       3.089       2.055       1.031      1.0205E-02
   3    9.990       8.759       7.530       6.314       5.140       4.072       3.047       2.033       1.021      1.0114E-02
   4    9.990       8.738       7.477       6.201       4.936       3.958       2.992       2.008       1.012      1.0022E-02
   5    9.989       8.728       7.441       6.074       4.447       3.832       2.955       1.997       1.009      9.9865E-03
   6    9.990       8.742       7.484       6.209       4.946       3.968       3.000       2.014       1.015      1.0053E-02
   7    9.990       8.766       7.544       6.332       5.160       4.092       3.064       2.045       1.028      1.0179E-02
   8    9.990       8.788       7.593       6.415       5.271       4.177       3.118       2.075       1.041      1.0310E-02
   9    9.990       8.804       7.626       6.465       5.330       4.228       3.154       2.097       1.051      1.0410E-02
  10    9.990       8.812       7.642       6.488       5.357       4.252       3.171       2.109       1.057      1.0463E-02

 HEAD WILL BE SAVED ON UNIT   51 AT END OF TIME STEP   69, STRESS PERIOD    3

 DRAWDOWN WILL BE SAVED ON UNIT   52 AT END OF TIME STEP   69, STRESS PERIOD    3
1
  VOLUMETRIC BUDGET FOR ENTIRE MODEL AT END OF TIME STEP   69, STRESS PERIOD   3
  ------------------------------------------------------------------------------

     CUMULATIVE VOLUMES      L**3       RATES FOR THIS TIME STEP      L**3/T
     ------------------                 ------------------------

           IN:                                      IN:
           ---                                      ---
             STORAGE =       25999.5020               STORAGE =       4.9415E-02
       CONSTANT HEAD =           0.0000         CONSTANT HEAD =           0.0000
               WELLS =           0.0000                 WELLS =           0.0000
     HEAD DEP BOUNDS =       89581.9766       HEAD DEP BOUNDS =         609.9502

            TOTAL IN =      115581.4766              TOTAL IN =         609.9996

          OUT:                                     OUT:
          ----                                     ----
             STORAGE =           0.0000               STORAGE =           0.0000
       CONSTANT HEAD =           0.0000         CONSTANT HEAD =           0.0000
               WELLS =        6900.0000                 WELLS =         100.0000
     HEAD DEP BOUNDS =      108681.9922       HEAD DEP BOUNDS =         510.0044

           TOTAL OUT =      115581.9922             TOTAL OUT =         610.0044

            IN - OUT =          -0.5156              IN - OUT =      -4.7607E-03

 PERCENT DISCREPANCY =          -0.00     PERCENT DISCREPANCY =          -0.00






         TIME SUMMARY AT END OF TIME STEP   69 IN STRESS PERIOD    3
                    SECONDS     MINUTES      HOURS       DAYS        YEARS
                    -----------------------------------------------------------
   TIME STEP LENGTH  86400.      1440.0      24.000      1.0000     2.73785E-03
 STRESS PERIOD TIME 5.96160E+06  99360.      1656.0      69.000     0.18891    
         TOTAL TIME 1.46880E+07 2.44800E+05  4080.0      170.00     0.46543    
1

 SOLVING FOR HEAD 

 OUTPUT CONTROL FOR STRESS PERIOD    3   TIME STEP   70
    SAVE HEAD FOR ALL LAYERS
    SAVE DRAWDOWN FOR ALL LAYERS
    SAVE BUDGET
    PRINT HEAD FOR ALL LAYERS
    PRINT BUDGET
 UBDSV1 SAVING "         STORAGE" ON UNIT  53 AT TIME STEP 70, STRESS PERIOD   3
 UBDSV2 SAVING "   CONSTANT HEAD" ON UNIT  53 AT TIME STEP 70, STRESS PERIOD   3
 UBDSV1 SAVING "FLOW RIGHT FACE " ON UNIT  53 AT TIME STEP 70, STRESS PERIOD   3
 UBDSV1 SAVING "FLOW FRONT FACE " ON UNIT  53 AT TIME STEP 70, STRESS PERIOD   3
1
              HEAD IN LAYER   1 AT END OF TIME STEP  70 IN STRESS PERIOD    3
  ---------------------------------------------------------------------------

            1           2           3           4           5           6           7           8           9          10
 ........................................................................................................................
   1    9.990       8.786       7.591       6.418       5.277       4.177       3.111       2.068       1.036      1.0259E-02
   2    9.990       8.776       7.571       6.385       5.236       4.144       3.089       2.055       1.031      1.0205E-02
   3    9.990       8.759       7.530       6.314       5.140       4.072       3.047       2.033       1.021      1.0114E-02
   4    9.990       8.738       7.477       6.201       4.936       3.958       2.992       2.008       1.012      1.0022E-02
   5    9.989       8.728       7.441       6.074       4.447       3.832       2.955       1.997       1.009      9.9865E-03
   6    9.990       8.742       7.484       6.209       4.946       3.968       3.000       2.014       1.015      1.0053E-02
   7    9.990       8.766       7.544       6.332       5.160       4.092       3.064       2.045       1.028      1.0179E-02
   8    9.990       8.788       7.593       6.415       5.271       4.177       3.118       2.075       1.041      1.0310E-02
   9    9.990       8.804       7.626       6.465       5.330       4.228       3.154       2.097       1.051      1.0410E-02
  10    9.990       8.812       7.642       6.488       5.357       4.252       3.171       2.109       1.057      1.0463E-02

 HEAD WILL BE SAVED ON UNIT   51 AT END OF TIME STEP   70, STRESS PERIOD    3

 DRAWDOWN WILL BE SAVED ON UNIT   52 AT END OF TIME STEP   70, STRESS PERIOD    3
1
  VOLUMETRIC BUDGET FOR ENTIRE MODEL AT END OF TIME STEP   70, STRESS PERIOD   3
  ------------------------------------------------------------------------------

     CUMULATIVE VOLUMES      L**3       RATES FOR THIS TIME STEP      L**3/T
     ------------------                 ------------------------

           IN:                                      IN:
           ---                                      ---
             STORAGE =       25999.5469               STORAGE =       4.4113E-02
       CONSTANT HEAD =           0.0000         CONSTANT HEAD =           0.0000
               WELLS =           0.0000                 WELLS =           0.0000
     HEAD DEP BOUNDS =       90191.9297       HEAD DEP BOUNDS =         609.9528

            TOTAL IN =      116191.4766              TOTAL IN =         609.9969

          OUT:                                     OUT:
          ----                                     ----
             STORAGE =           0.0000               STORAGE =           0.0000
       CONSTANT HEAD =           0.0000         CONSTANT HEAD =           0.0000
               WELLS =        7000.0000                 WELLS =         100.0000
     HEAD DEP BOUNDS =      109191.9922       HEAD DEP BOUNDS =         510.0018

           TOTAL OUT =      116191.9922             TOTAL OUT =         610.0018

            IN - OUT =          -0.5156              IN - OUT =      -4.8218E-03

 PERCENT DISCREPANCY =          -0.00     PERCENT DISCREPANCY =          -0.00






         TIME SUMMARY AT END OF TIME STEP   70 IN STRESS PERIOD    3
                    SECONDS     MINUTES      HOURS       DAYS        YEARS
                    -----------------------------------------------------------
   TIME STEP LENGTH  86400.      1440.0      24.000      1.0000     2.73785E-03
 STRESS PERIOD TIME 6.04800E+06 1.00800E+05  1680.0      70.000     0.19165    
         TOTAL TIME 1.47744E+07 2.46240E+05  4104.0      171.00     0.46817    
1

 SOLVING FOR HEAD 

 OUTPUT CONTROL FOR STRESS PERIOD    3   TIME STEP   71
    SAVE HEAD FOR ALL LAYERS
    SAVE DRAWDOWN FOR ALL LAYERS
    SAVE BUDGET
    PRINT HEAD FOR ALL LAYERS
    PRINT BUDGET
 UBDSV1 SAVING "         STORAGE" ON UNIT  53 AT TIME STEP 71, STRESS PERIOD   3
 UBDSV2 SAVING "   CONSTANT HEAD" ON UNIT  53 AT TIME STEP 71, STRESS PERIOD   3
 UBDSV1 SAVING "FLOW RIGHT FACE " ON UNIT  53 AT TIME STEP 71, STRESS PERIOD   3
 UBDSV1 SAVING "FLOW FRONT FACE " ON UNIT  53 AT TIME STEP 71, STRESS PERIOD   3
1
              HEAD IN LAYER   1 AT END OF TIME STEP  71 IN STRESS PERIOD    3
  ---------------------------------------------------------------------------

            1           2           3           4           5           6           7           8           9          10
 ........................................................................................................................
   1    9.990       8.786       7.591       6.418       5.277       4.177       3.111       2.068       1.036      1.0259E-02
   2    9.990       8.776       7.571       6.385       5.236       4.144       3.089       2.055       1.031      1.0205E-02
   3    9.990       8.759       7.530       6.314       5.140       4.072       3.047       2.033       1.021      1.0114E-02
   4    9.990       8.738       7.477       6.200       4.936       3.958       2.992       2.008       1.012      1.0022E-02
   5    9.989       8.728       7.441       6.074       4.447       3.832       2.955       1.997       1.009      9.9864E-03
   6    9.990       8.742       7.484       6.209       4.946       3.968       3.000       2.014       1.015      1.0053E-02
   7    9.990       8.766       7.544       6.332       5.160       4.092       3.064       2.045       1.028      1.0179E-02
   8    9.990       8.788       7.593       6.415       5.271       4.177       3.118       2.075       1.041      1.0310E-02
   9    9.990       8.804       7.626       6.465       5.330       4.228       3.154       2.097       1.051      1.0410E-02
  10    9.990       8.812       7.642       6.488       5.357       4.252       3.171       2.109       1.057      1.0463E-02

 HEAD WILL BE SAVED ON UNIT   51 AT END OF TIME STEP   71, STRESS PERIOD    3

 DRAWDOWN WILL BE SAVED ON UNIT   52 AT END OF TIME STEP   71, STRESS PERIOD    3
1
  VOLUMETRIC BUDGET FOR ENTIRE MODEL AT END OF TIME STEP   71, STRESS PERIOD   3
  ------------------------------------------------------------------------------

     CUMULATIVE VOLUMES      L**3       RATES FOR THIS TIME STEP      L**3/T
     ------------------                 ------------------------

           IN:                                      IN:
           ---                                      ---
             STORAGE =       25999.5859               STORAGE =       3.9174E-02
       CONSTANT HEAD =           0.0000         CONSTANT HEAD =           0.0000
               WELLS =           0.0000                 WELLS =           0.0000
     HEAD DEP BOUNDS =       90801.8828       HEAD DEP BOUNDS =         609.9552

            TOTAL IN =      116801.4688              TOTAL IN =         609.9944

          OUT:                                     OUT:
          ----                                     ----
             STORAGE =           0.0000               STORAGE =           0.0000
       CONSTANT HEAD =           0.0000         CONSTANT HEAD =           0.0000
               WELLS =        7100.0000                 WELLS =         100.0000
     HEAD DEP BOUNDS =      109701.9922       HEAD DEP BOUNDS =         509.9994

           TOTAL OUT =      116801.9922             TOTAL OUT =         609.9994

            IN - OUT =          -0.5234              IN - OUT =      -5.0049E-03

 PERCENT DISCREPANCY =          -0.00     PERCENT DISCREPANCY =          -0.00






         TIME SUMMARY AT END OF TIME STEP   71 IN STRESS PERIOD    3
                    SECONDS     MINUTES      HOURS       DAYS        YEARS
                    -----------------------------------------------------------
   TIME STEP LENGTH  86400.      1440.0      24.000      1.0000     2.73785E-03
 STRESS PERIOD TIME 6.13440E+06 1.02240E+05  1704.0      71.000     0.19439    
         TOTAL TIME 1.48608E+07 2.47680E+05  4128.0      172.00     0.47091    
1

 SOLVING FOR HEAD 

 OUTPUT CONTROL FOR STRESS PERIOD    3   TIME STEP   72
    SAVE HEAD FOR ALL LAYERS
    SAVE DRAWDOWN FOR ALL LAYERS
    SAVE BUDGET
    PRINT HEAD FOR ALL LAYERS
    PRINT BUDGET
 UBDSV1 SAVING "         STORAGE" ON UNIT  53 AT TIME STEP 72, STRESS PERIOD   3
 UBDSV2 SAVING "   CONSTANT HEAD" ON UNIT  53 AT TIME STEP 72, STRESS PERIOD   3
 UBDSV1 SAVING "FLOW RIGHT FACE " ON UNIT  53 AT TIME STEP 72, STRESS PERIOD   3
 UBDSV1 SAVING "FLOW FRONT FACE " ON UNIT  53 AT TIME STEP 72, STRESS PERIOD   3
1
              HEAD IN LAYER   1 AT END OF TIME STEP  72 IN STRESS PERIOD    3
  ---------------------------------------------------------------------------

            1           2           3           4           5           6           7           8           9          10
 ........................................................................................................................
   1    9.990       8.786       7.591       6.418       5.277       4.177       3.111       2.068       1.036      1.0259E-02
   2    9.990       8.776       7.571       6.385       5.236       4.144       3.089       2.055       1.031      1.0205E-02
   3    9.990       8.759       7.530       6.314       5.140       4.072       3.047       2.033       1.021      1.0114E-02
   4    9.990       8.738       7.477       6.200       4.936       3.958       2.992       2.008       1.012      1.0022E-02
   5    9.989       8.728       7.441       6.074       4.447       3.832       2.955       1.997       1.009      9.9864E-03
   6    9.990       8.742       7.484       6.209       4.946       3.968       3.000       2.014       1.015      1.0053E-02
   7    9.990       8.766       7.544       6.332       5.160       4.092       3.064       2.045       1.028      1.0179E-02
   8    9.990       8.788       7.593       6.415       5.271       4.177       3.118       2.075       1.041      1.0310E-02
   9    9.990       8.804       7.626       6.465       5.330       4.228       3.154       2.097       1.051      1.0410E-02
  10    9.990       8.812       7.642       6.488       5.357       4.252       3.171       2.109       1.057      1.0463E-02

 HEAD WILL BE SAVED ON UNIT   51 AT END OF TIME STEP   72, STRESS PERIOD    3

 DRAWDOWN WILL BE SAVED ON UNIT   52 AT END OF TIME STEP   72, STRESS PERIOD    3
1
  VOLUMETRIC BUDGET FOR ENTIRE MODEL AT END OF TIME STEP   72, STRESS PERIOD   3
  ------------------------------------------------------------------------------

     CUMULATIVE VOLUMES      L**3       RATES FOR THIS TIME STEP      L**3/T
     ------------------                 ------------------------

           IN:                                      IN:
           ---                                      ---
             STORAGE =       25999.6211               STORAGE =       3.5299E-02
       CONSTANT HEAD =           0.0000         CONSTANT HEAD =           0.0000
               WELLS =           0.0000                 WELLS =           0.0000
     HEAD DEP BOUNDS =       91411.8438       HEAD DEP BOUNDS =         609.9572

            TOTAL IN =      117411.4688              TOTAL IN =         609.9925

          OUT:                                     OUT:
          ----                                     ----
             STORAGE =           0.0000               STORAGE =           0.0000
       CONSTANT HEAD =           0.0000         CONSTANT HEAD =           0.0000
               WELLS =        7200.0000                 WELLS =         100.0000
     HEAD DEP BOUNDS =      110211.9922       HEAD DEP BOUNDS =         509.9973

           TOTAL OUT =      117411.9922             TOTAL OUT =         609.9973

            IN - OUT =          -0.5234              IN - OUT =      -4.8218E-03

 PERCENT DISCREPANCY =          -0.00     PERCENT DISCREPANCY =          -0.00






         TIME SUMMARY AT END OF TIME STEP   72 IN STRESS PERIOD    3
                    SECONDS     MINUTES      HOURS       DAYS        YEARS
                    -----------------------------------------------------------
   TIME STEP LENGTH  86400.      1440.0      24.000      1.0000     2.73785E-03
 STRESS PERIOD TIME 6.22080E+06 1.03680E+05  1728.0      72.000     0.19713    
         TOTAL TIME 1.49472E+07 2.49120E+05  4152.0      173.00     0.47365    
1

 SOLVING FOR HEAD 

 OUTPUT CONTROL FOR STRESS PERIOD    3   TIME STEP   73
    SAVE HEAD FOR ALL LAYERS
    SAVE DRAWDOWN FOR ALL LAYERS
    SAVE BUDGET
    PRINT HEAD FOR ALL LAYERS
    PRINT BUDGET
 UBDSV1 SAVING "         STORAGE" ON UNIT  53 AT TIME STEP 73, STRESS PERIOD   3
 UBDSV2 SAVING "   CONSTANT HEAD" ON UNIT  53 AT TIME STEP 73, STRESS PERIOD   3
 UBDSV1 SAVING "FLOW RIGHT FACE " ON UNIT  53 AT TIME STEP 73, STRESS PERIOD   3
 UBDSV1 SAVING "FLOW FRONT FACE " ON UNIT  53 AT TIME STEP 73, STRESS PERIOD   3
1
              HEAD IN LAYER   1 AT END OF TIME STEP  73 IN STRESS PERIOD    3
  ---------------------------------------------------------------------------

            1           2           3           4           5           6           7           8           9          10
 ........................................................................................................................
   1    9.990       8.786       7.591       6.418       5.277       4.177       3.111       2.068       1.036      1.0259E-02
   2    9.990       8.776       7.571       6.385       5.236       4.144       3.089       2.055       1.031      1.0205E-02
   3    9.990       8.759       7.530       6.314       5.140       4.072       3.047       2.033       1.021      1.0114E-02
   4    9.990       8.738       7.477       6.200       4.936       3.958       2.992       2.008       1.012      1.0022E-02
   5    9.989       8.728       7.441       6.074       4.447       3.832       2.955       1.997       1.009      9.9863E-03
   6    9.990       8.742       7.484       6.209       4.946       3.968       3.000       2.014       1.015      1.0053E-02
   7    9.990       8.766       7.544       6.332       5.160       4.092       3.064       2.045       1.028      1.0179E-02
   8    9.990       8.788       7.593       6.415       5.271       4.177       3.118       2.075       1.041      1.0310E-02
   9    9.990       8.804       7.626       6.465       5.330       4.228       3.154       2.097       1.051      1.0410E-02
  10    9.990       8.812       7.642       6.488       5.357       4.252       3.171       2.109       1.057      1.0463E-02

 HEAD WILL BE SAVED ON UNIT   51 AT END OF TIME STEP   73, STRESS PERIOD    3

 DRAWDOWN WILL BE SAVED ON UNIT   52 AT END OF TIME STEP   73, STRESS PERIOD    3
1
  VOLUMETRIC BUDGET FOR ENTIRE MODEL AT END OF TIME STEP   73, STRESS PERIOD   3
  ------------------------------------------------------------------------------

     CUMULATIVE VOLUMES      L**3       RATES FOR THIS TIME STEP      L**3/T
     ------------------                 ------------------------

           IN:                                      IN:
           ---                                      ---
             STORAGE =       25999.6523               STORAGE =       3.1490E-02
       CONSTANT HEAD =           0.0000         CONSTANT HEAD =           0.0000
               WELLS =           0.0000                 WELLS =           0.0000
     HEAD DEP BOUNDS =       92021.8047       HEAD DEP BOUNDS =         609.9591

            TOTAL IN =      118021.4531              TOTAL IN =         609.9906

          OUT:                                     OUT:
          ----                                     ----
             STORAGE =           0.0000               STORAGE =           0.0000
       CONSTANT HEAD =           0.0000         CONSTANT HEAD =           0.0000
               WELLS =        7300.0000                 WELLS =         100.0000
     HEAD DEP BOUNDS =      110721.9844       HEAD DEP BOUNDS =         509.9954

           TOTAL OUT =      118021.9844             TOTAL OUT =         609.9954

            IN - OUT =          -0.5312              IN - OUT =      -4.7607E-03

 PERCENT DISCREPANCY =          -0.00     PERCENT DISCREPANCY =          -0.00






         TIME SUMMARY AT END OF TIME STEP   73 IN STRESS PERIOD    3
                    SECONDS     MINUTES      HOURS       DAYS        YEARS
                    -----------------------------------------------------------
   TIME STEP LENGTH  86400.      1440.0      24.000      1.0000     2.73785E-03
 STRESS PERIOD TIME 6.30720E+06 1.05120E+05  1752.0      73.000     0.19986    
         TOTAL TIME 1.50336E+07 2.50560E+05  4176.0      174.00     0.47639    
1

 SOLVING FOR HEAD 

 OUTPUT CONTROL FOR STRESS PERIOD    3   TIME STEP   74
    SAVE HEAD FOR ALL LAYERS
    SAVE DRAWDOWN FOR ALL LAYERS
    SAVE BUDGET
    PRINT HEAD FOR ALL LAYERS
    PRINT BUDGET
 UBDSV1 SAVING "         STORAGE" ON UNIT  53 AT TIME STEP 74, STRESS PERIOD   3
 UBDSV2 SAVING "   CONSTANT HEAD" ON UNIT  53 AT TIME STEP 74, STRESS PERIOD   3
 UBDSV1 SAVING "FLOW RIGHT FACE " ON UNIT  53 AT TIME STEP 74, STRESS PERIOD   3
 UBDSV1 SAVING "FLOW FRONT FACE " ON UNIT  53 AT TIME STEP 74, STRESS PERIOD   3
1
              HEAD IN LAYER   1 AT END OF TIME STEP  74 IN STRESS PERIOD    3
  ---------------------------------------------------------------------------

            1           2           3           4           5           6           7           8           9          10
 ........................................................................................................................
   1    9.990       8.786       7.591       6.418       5.277       4.177       3.111       2.068       1.036      1.0259E-02
   2    9.990       8.776       7.571       6.385       5.236       4.144       3.089       2.055       1.031      1.0205E-02
   3    9.990       8.759       7.530       6.314       5.140       4.072       3.047       2.033       1.021      1.0114E-02
   4    9.990       8.738       7.477       6.200       4.936       3.958       2.992       2.008       1.012      1.0022E-02
   5    9.989       8.728       7.441       6.074       4.447       3.832       2.955       1.997       1.009      9.9863E-03
   6    9.990       8.742       7.484       6.209       4.946       3.968       3.000       2.014       1.015      1.0053E-02
   7    9.990       8.766       7.544       6.332       5.160       4.092       3.064       2.045       1.028      1.0179E-02
   8    9.990       8.788       7.593       6.415       5.271       4.177       3.118       2.075       1.041      1.0310E-02
   9    9.990       8.804       7.626       6.465       5.330       4.228       3.154       2.097       1.051      1.0410E-02
  10    9.990       8.812       7.642       6.488       5.357       4.252       3.171       2.108       1.057      1.0463E-02

 HEAD WILL BE SAVED ON UNIT   51 AT END OF TIME STEP   74, STRESS PERIOD    3

 DRAWDOWN WILL BE SAVED ON UNIT   52 AT END OF TIME STEP   74, STRESS PERIOD    3
1
  VOLUMETRIC BUDGET FOR ENTIRE MODEL AT END OF TIME STEP   74, STRESS PERIOD   3
  ------------------------------------------------------------------------------

     CUMULATIVE VOLUMES      L**3       RATES FOR THIS TIME STEP      L**3/T
     ------------------                 ------------------------

           IN:                                      IN:
           ---                                      ---
             STORAGE =       25999.6797               STORAGE =       2.7990E-02
       CONSTANT HEAD =           0.0000         CONSTANT HEAD =           0.0000
               WELLS =           0.0000                 WELLS =           0.0000
     HEAD DEP BOUNDS =       92631.7656       HEAD DEP BOUNDS =         609.9608

            TOTAL IN =      118631.4453              TOTAL IN =         609.9888

          OUT:                                     OUT:
          ----                                     ----
             STORAGE =           0.0000               STORAGE =           0.0000
       CONSTANT HEAD =           0.0000         CONSTANT HEAD =           0.0000
               WELLS =        7400.0000                 WELLS =         100.0000
     HEAD DEP BOUNDS =      111231.9766       HEAD DEP BOUNDS =         509.9937

           TOTAL OUT =      118631.9766             TOTAL OUT =         609.9937

            IN - OUT =          -0.5312              IN - OUT =      -4.9438E-03

 PERCENT DISCREPANCY =          -0.00     PERCENT DISCREPANCY =          -0.00






         TIME SUMMARY AT END OF TIME STEP   74 IN STRESS PERIOD    3
                    SECONDS     MINUTES      HOURS       DAYS        YEARS
                    -----------------------------------------------------------
   TIME STEP LENGTH  86400.      1440.0      24.000      1.0000     2.73785E-03
 STRESS PERIOD TIME 6.39360E+06 1.06560E+05  1776.0      74.000     0.20260    
         TOTAL TIME 1.51200E+07 2.52000E+05  4200.0      175.00     0.47912    
1

 SOLVING FOR HEAD 

 OUTPUT CONTROL FOR STRESS PERIOD    3   TIME STEP   75
    SAVE HEAD FOR ALL LAYERS
    SAVE DRAWDOWN FOR ALL LAYERS
    SAVE BUDGET
    PRINT HEAD FOR ALL LAYERS
    PRINT BUDGET
 UBDSV1 SAVING "         STORAGE" ON UNIT  53 AT TIME STEP 75, STRESS PERIOD   3
 UBDSV2 SAVING "   CONSTANT HEAD" ON UNIT  53 AT TIME STEP 75, STRESS PERIOD   3
 UBDSV1 SAVING "FLOW RIGHT FACE " ON UNIT  53 AT TIME STEP 75, STRESS PERIOD   3
 UBDSV1 SAVING "FLOW FRONT FACE " ON UNIT  53 AT TIME STEP 75, STRESS PERIOD   3
1
              HEAD IN LAYER   1 AT END OF TIME STEP  75 IN STRESS PERIOD    3
  ---------------------------------------------------------------------------

            1           2           3           4           5           6           7           8           9          10
 ........................................................................................................................
   1    9.990       8.786       7.591       6.418       5.277       4.177       3.111       2.068       1.036      1.0259E-02
   2    9.990       8.776       7.571       6.385       5.236       4.144       3.089       2.055       1.031      1.0205E-02
   3    9.990       8.759       7.530       6.314       5.140       4.072       3.047       2.033       1.021      1.0113E-02
   4    9.990       8.738       7.477       6.200       4.936       3.958       2.992       2.008       1.012      1.0021E-02
   5    9.989       8.728       7.441       6.074       4.447       3.832       2.955       1.997       1.009      9.9863E-03
   6    9.990       8.742       7.484       6.209       4.946       3.968       3.000       2.014       1.015      1.0053E-02
   7    9.990       8.766       7.544       6.332       5.160       4.092       3.064       2.045       1.028      1.0179E-02
   8    9.990       8.788       7.593       6.415       5.271       4.177       3.118       2.075       1.041      1.0310E-02
   9    9.990       8.804       7.626       6.465       5.330       4.228       3.154       2.097       1.051      1.0410E-02
  10    9.990       8.812       7.642       6.488       5.357       4.252       3.171       2.108       1.057      1.0463E-02

 HEAD WILL BE SAVED ON UNIT   51 AT END OF TIME STEP   75, STRESS PERIOD    3

 DRAWDOWN WILL BE SAVED ON UNIT   52 AT END OF TIME STEP   75, STRESS PERIOD    3
1
  VOLUMETRIC BUDGET FOR ENTIRE MODEL AT END OF TIME STEP   75, STRESS PERIOD   3
  ------------------------------------------------------------------------------

     CUMULATIVE VOLUMES      L**3       RATES FOR THIS TIME STEP      L**3/T
     ------------------                 ------------------------

           IN:                                      IN:
           ---                                      ---
             STORAGE =       25999.7051               STORAGE =       2.5203E-02
       CONSTANT HEAD =           0.0000         CONSTANT HEAD =           0.0000
               WELLS =           0.0000                 WELLS =           0.0000
     HEAD DEP BOUNDS =       93241.7266       HEAD DEP BOUNDS =         609.9623

            TOTAL IN =      119241.4297              TOTAL IN =         609.9875

          OUT:                                     OUT:
          ----                                     ----
             STORAGE =           0.0000               STORAGE =           0.0000
       CONSTANT HEAD =           0.0000         CONSTANT HEAD =           0.0000
               WELLS =        7500.0000                 WELLS =         100.0000
     HEAD DEP BOUNDS =      111741.9688       HEAD DEP BOUNDS =         509.9922

           TOTAL OUT =      119241.9688             TOTAL OUT =         609.9922

            IN - OUT =          -0.5391              IN - OUT =      -4.6997E-03

 PERCENT DISCREPANCY =          -0.00     PERCENT DISCREPANCY =          -0.00






         TIME SUMMARY AT END OF TIME STEP   75 IN STRESS PERIOD    3
                    SECONDS     MINUTES      HOURS       DAYS        YEARS
                    -----------------------------------------------------------
   TIME STEP LENGTH  86400.      1440.0      24.000      1.0000     2.73785E-03
 STRESS PERIOD TIME 6.48000E+06 1.08000E+05  1800.0      75.000     0.20534    
         TOTAL TIME 1.52064E+07 2.53440E+05  4224.0      176.00     0.48186    
1

 SOLVING FOR HEAD 

 OUTPUT CONTROL FOR STRESS PERIOD    3   TIME STEP   76
    SAVE HEAD FOR ALL LAYERS
    SAVE DRAWDOWN FOR ALL LAYERS
    SAVE BUDGET
    PRINT HEAD FOR ALL LAYERS
    PRINT BUDGET
 UBDSV1 SAVING "         STORAGE" ON UNIT  53 AT TIME STEP 76, STRESS PERIOD   3
 UBDSV2 SAVING "   CONSTANT HEAD" ON UNIT  53 AT TIME STEP 76, STRESS PERIOD   3
 UBDSV1 SAVING "FLOW RIGHT FACE " ON UNIT  53 AT TIME STEP 76, STRESS PERIOD   3
 UBDSV1 SAVING "FLOW FRONT FACE " ON UNIT  53 AT TIME STEP 76, STRESS PERIOD   3
1
              HEAD IN LAYER   1 AT END OF TIME STEP  76 IN STRESS PERIOD    3
  ---------------------------------------------------------------------------

            1           2           3           4           5           6           7           8           9          10
 ........................................................................................................................
   1    9.990       8.786       7.591       6.418       5.277       4.177       3.111       2.068       1.036      1.0259E-02
   2    9.990       8.776       7.571       6.384       5.236       4.144       3.089       2.055       1.031      1.0205E-02
   3    9.990       8.759       7.530       6.314       5.140       4.072       3.047       2.033       1.021      1.0113E-02
   4    9.990       8.738       7.477       6.200       4.936       3.958       2.992       2.008       1.012      1.0021E-02
   5    9.989       8.728       7.441       6.074       4.447       3.832       2.955       1.997       1.009      9.9862E-03
   6    9.990       8.742       7.484       6.209       4.946       3.968       3.000       2.014       1.015      1.0053E-02
   7    9.990       8.766       7.544       6.332       5.160       4.092       3.064       2.045       1.028      1.0179E-02
   8    9.990       8.788       7.593       6.415       5.271       4.177       3.118       2.075       1.041      1.0310E-02
   9    9.990       8.804       7.626       6.465       5.330       4.228       3.154       2.097       1.051      1.0410E-02
  10    9.990       8.812       7.642       6.488       5.357       4.252       3.171       2.108       1.057      1.0463E-02

 HEAD WILL BE SAVED ON UNIT   51 AT END OF TIME STEP   76, STRESS PERIOD    3

 DRAWDOWN WILL BE SAVED ON UNIT   52 AT END OF TIME STEP   76, STRESS PERIOD    3
1
  VOLUMETRIC BUDGET FOR ENTIRE MODEL AT END OF TIME STEP   76, STRESS PERIOD   3
  ------------------------------------------------------------------------------

     CUMULATIVE VOLUMES      L**3       RATES FOR THIS TIME STEP      L**3/T
     ------------------                 ------------------------

           IN:                                      IN:
           ---                                      ---
             STORAGE =       25999.7266               STORAGE =       2.2314E-02
       CONSTANT HEAD =           0.0000         CONSTANT HEAD =           0.0000
               WELLS =           0.0000                 WELLS =           0.0000
     HEAD DEP BOUNDS =       93851.6875       HEAD DEP BOUNDS =         609.9636

            TOTAL IN =      119851.4141              TOTAL IN =         609.9860

          OUT:                                     OUT:
          ----                                     ----
             STORAGE =           0.0000               STORAGE =           0.0000
       CONSTANT HEAD =           0.0000         CONSTANT HEAD =           0.0000
               WELLS =        7600.0000                 WELLS =         100.0000
     HEAD DEP BOUNDS =      112251.9609       HEAD DEP BOUNDS =         509.9908

           TOTAL OUT =      119851.9609             TOTAL OUT =         609.9908

            IN - OUT =          -0.5469              IN - OUT =      -4.8828E-03

 PERCENT DISCREPANCY =          -0.00     PERCENT DISCREPANCY =          -0.00






         TIME SUMMARY AT END OF TIME STEP   76 IN STRESS PERIOD    3
                    SECONDS     MINUTES      HOURS       DAYS        YEARS
                    -----------------------------------------------------------
   TIME STEP LENGTH  86400.      1440.0      24.000      1.0000     2.73785E-03
 STRESS PERIOD TIME 6.56640E+06 1.09440E+05  1824.0      76.000     0.20808    
         TOTAL TIME 1.52928E+07 2.54880E+05  4248.0      177.00     0.48460    
1

 SOLVING FOR HEAD 

 OUTPUT CONTROL FOR STRESS PERIOD    3   TIME STEP   77
    SAVE HEAD FOR ALL LAYERS
    SAVE DRAWDOWN FOR ALL LAYERS
    SAVE BUDGET
    PRINT HEAD FOR ALL LAYERS
    PRINT BUDGET
 UBDSV1 SAVING "         STORAGE" ON UNIT  53 AT TIME STEP 77, STRESS PERIOD   3
 UBDSV2 SAVING "   CONSTANT HEAD" ON UNIT  53 AT TIME STEP 77, STRESS PERIOD   3
 UBDSV1 SAVING "FLOW RIGHT FACE " ON UNIT  53 AT TIME STEP 77, STRESS PERIOD   3
 UBDSV1 SAVING "FLOW FRONT FACE " ON UNIT  53 AT TIME STEP 77, STRESS PERIOD   3
1
              HEAD IN LAYER   1 AT END OF TIME STEP  77 IN STRESS PERIOD    3
  ---------------------------------------------------------------------------

            1           2           3           4           5           6           7           8           9          10
 ........................................................................................................................
   1    9.990       8.786       7.591       6.418       5.277       4.177       3.111       2.068       1.036      1.0259E-02
   2    9.990       8.776       7.571       6.384       5.236       4.144       3.089       2.055       1.031      1.0205E-02
   3    9.990       8.759       7.530       6.314       5.140       4.072       3.047       2.033       1.021      1.0113E-02
   4    9.990       8.738       7.477       6.200       4.936       3.958       2.992       2.008       1.012      1.0021E-02
   5    9.989       8.728       7.441       6.074       4.447       3.832       2.955       1.997       1.009      9.9862E-03
   6    9.990       8.742       7.484       6.209       4.946       3.968       3.000       2.014       1.015      1.0053E-02
   7    9.990       8.766       7.544       6.332       5.160       4.092       3.064       2.045       1.028      1.0179E-02
   8    9.990       8.788       7.593       6.415       5.271       4.177       3.118       2.075       1.041      1.0309E-02
   9    9.990       8.804       7.626       6.465       5.330       4.228       3.154       2.097       1.051      1.0410E-02
  10    9.990       8.812       7.642       6.488       5.357       4.252       3.171       2.108       1.057      1.0463E-02

 HEAD WILL BE SAVED ON UNIT   51 AT END OF TIME STEP   77, STRESS PERIOD    3

 DRAWDOWN WILL BE SAVED ON UNIT   52 AT END OF TIME STEP   77, STRESS PERIOD    3
1
  VOLUMETRIC BUDGET FOR ENTIRE MODEL AT END OF TIME STEP   77, STRESS PERIOD   3
  ------------------------------------------------------------------------------

     CUMULATIVE VOLUMES      L**3       RATES FOR THIS TIME STEP      L**3/T
     ------------------                 ------------------------

           IN:                                      IN:
           ---                                      ---
             STORAGE =       25999.7461               STORAGE =       1.9829E-02
       CONSTANT HEAD =           0.0000         CONSTANT HEAD =           0.0000
               WELLS =           0.0000                 WELLS =           0.0000
     HEAD DEP BOUNDS =       94461.6562       HEAD DEP BOUNDS =         609.9648

            TOTAL IN =      120461.4062              TOTAL IN =         609.9847

          OUT:                                     OUT:
          ----                                     ----
             STORAGE =           0.0000               STORAGE =           0.0000
       CONSTANT HEAD =           0.0000         CONSTANT HEAD =           0.0000
               WELLS =        7700.0000                 WELLS =         100.0000
     HEAD DEP BOUNDS =      112761.9531       HEAD DEP BOUNDS =         509.9897

           TOTAL OUT =      120461.9531             TOTAL OUT =         609.9896

            IN - OUT =          -0.5469              IN - OUT =      -4.9438E-03

 PERCENT DISCREPANCY =          -0.00     PERCENT DISCREPANCY =          -0.00






         TIME SUMMARY AT END OF TIME STEP   77 IN STRESS PERIOD    3
                    SECONDS     MINUTES      HOURS       DAYS        YEARS
                    -----------------------------------------------------------
   TIME STEP LENGTH  86400.      1440.0      24.000      1.0000     2.73785E-03
 STRESS PERIOD TIME 6.65280E+06 1.10880E+05  1848.0      77.000     0.21081    
         TOTAL TIME 1.53792E+07 2.56320E+05  4272.0      178.00     0.48734    
1

 SOLVING FOR HEAD 

 OUTPUT CONTROL FOR STRESS PERIOD    3   TIME STEP   78
    SAVE HEAD FOR ALL LAYERS
    SAVE DRAWDOWN FOR ALL LAYERS
    SAVE BUDGET
    PRINT HEAD FOR ALL LAYERS
    PRINT BUDGET
 UBDSV1 SAVING "         STORAGE" ON UNIT  53 AT TIME STEP 78, STRESS PERIOD   3
 UBDSV2 SAVING "   CONSTANT HEAD" ON UNIT  53 AT TIME STEP 78, STRESS PERIOD   3
 UBDSV1 SAVING "FLOW RIGHT FACE " ON UNIT  53 AT TIME STEP 78, STRESS PERIOD   3
 UBDSV1 SAVING "FLOW FRONT FACE " ON UNIT  53 AT TIME STEP 78, STRESS PERIOD   3
1
              HEAD IN LAYER   1 AT END OF TIME STEP  78 IN STRESS PERIOD    3
  ---------------------------------------------------------------------------

            1           2           3           4           5           6           7           8           9          10
 ........................................................................................................................
   1    9.990       8.786       7.591       6.418       5.277       4.177       3.111       2.068       1.036      1.0259E-02
   2    9.990       8.776       7.571       6.384       5.236       4.144       3.089       2.055       1.031      1.0205E-02
   3    9.990       8.759       7.530       6.314       5.140       4.072       3.047       2.033       1.021      1.0113E-02
   4    9.990       8.738       7.477       6.200       4.936       3.958       2.992       2.008       1.012      1.0021E-02
   5    9.989       8.728       7.441       6.074       4.447       3.832       2.955       1.997       1.009      9.9862E-03
   6    9.990       8.742       7.484       6.209       4.946       3.968       3.000       2.014       1.015      1.0053E-02
   7    9.990       8.766       7.544       6.332       5.160       4.092       3.064       2.045       1.028      1.0179E-02
   8    9.990       8.788       7.593       6.415       5.271       4.177       3.118       2.075       1.041      1.0309E-02
   9    9.990       8.804       7.626       6.465       5.330       4.228       3.154       2.097       1.051      1.0410E-02
  10    9.990       8.812       7.642       6.488       5.357       4.252       3.171       2.108       1.057      1.0463E-02

 HEAD WILL BE SAVED ON UNIT   51 AT END OF TIME STEP   78, STRESS PERIOD    3

 DRAWDOWN WILL BE SAVED ON UNIT   52 AT END OF TIME STEP   78, STRESS PERIOD    3
1
  VOLUMETRIC BUDGET FOR ENTIRE MODEL AT END OF TIME STEP   78, STRESS PERIOD   3
  ------------------------------------------------------------------------------

     CUMULATIVE VOLUMES      L**3       RATES FOR THIS TIME STEP      L**3/T
     ------------------                 ------------------------

           IN:                                      IN:
           ---                                      ---
             STORAGE =       25999.7637               STORAGE =       1.7718E-02
       CONSTANT HEAD =           0.0000         CONSTANT HEAD =           0.0000
               WELLS =           0.0000                 WELLS =           0.0000
     HEAD DEP BOUNDS =       95071.6250       HEAD DEP BOUNDS =         609.9658

            TOTAL IN =      121071.3906              TOTAL IN =         609.9835

          OUT:                                     OUT:
          ----                                     ----
             STORAGE =           0.0000               STORAGE =           0.0000
       CONSTANT HEAD =           0.0000         CONSTANT HEAD =           0.0000
               WELLS =        7800.0000                 WELLS =         100.0000
     HEAD DEP BOUNDS =      113271.9453       HEAD DEP BOUNDS =         509.9886

           TOTAL OUT =      121071.9453             TOTAL OUT =         609.9886

            IN - OUT =          -0.5547              IN - OUT =      -5.0659E-03

 PERCENT DISCREPANCY =          -0.00     PERCENT DISCREPANCY =          -0.00






         TIME SUMMARY AT END OF TIME STEP   78 IN STRESS PERIOD    3
                    SECONDS     MINUTES      HOURS       DAYS        YEARS
                    -----------------------------------------------------------
   TIME STEP LENGTH  86400.      1440.0      24.000      1.0000     2.73785E-03
 STRESS PERIOD TIME 6.73920E+06 1.12320E+05  1872.0      78.000     0.21355    
         TOTAL TIME 1.54656E+07 2.57760E+05  4296.0      179.00     0.49008    
1

 SOLVING FOR HEAD 

 OUTPUT CONTROL FOR STRESS PERIOD    3   TIME STEP   79
    SAVE HEAD FOR ALL LAYERS
    SAVE DRAWDOWN FOR ALL LAYERS
    SAVE BUDGET
    PRINT HEAD FOR ALL LAYERS
    PRINT BUDGET
 UBDSV1 SAVING "         STORAGE" ON UNIT  53 AT TIME STEP 79, STRESS PERIOD   3
 UBDSV2 SAVING "   CONSTANT HEAD" ON UNIT  53 AT TIME STEP 79, STRESS PERIOD   3
 UBDSV1 SAVING "FLOW RIGHT FACE " ON UNIT  53 AT TIME STEP 79, STRESS PERIOD   3
 UBDSV1 SAVING "FLOW FRONT FACE " ON UNIT  53 AT TIME STEP 79, STRESS PERIOD   3
1
              HEAD IN LAYER   1 AT END OF TIME STEP  79 IN STRESS PERIOD    3
  ---------------------------------------------------------------------------

            1           2           3           4           5           6           7           8           9          10
 ........................................................................................................................
   1    9.990       8.786       7.591       6.418       5.277       4.177       3.111       2.068       1.036      1.0259E-02
   2    9.990       8.776       7.571       6.384       5.236       4.144       3.089       2.055       1.031      1.0205E-02
   3    9.990       8.759       7.530       6.314       5.140       4.072       3.047       2.033       1.021      1.0113E-02
   4    9.990       8.738       7.477       6.200       4.936       3.958       2.992       2.008       1.012      1.0021E-02
   5    9.989       8.728       7.441       6.074       4.447       3.832       2.955       1.997       1.009      9.9862E-03
   6    9.990       8.742       7.484       6.209       4.946       3.968       3.000       2.014       1.015      1.0053E-02
   7    9.990       8.766       7.544       6.332       5.160       4.092       3.064       2.045       1.028      1.0179E-02
   8    9.990       8.788       7.593       6.415       5.271       4.177       3.118       2.075       1.041      1.0309E-02
   9    9.990       8.804       7.626       6.465       5.330       4.228       3.154       2.097       1.051      1.0410E-02
  10    9.990       8.812       7.642       6.488       5.357       4.252       3.171       2.108       1.057      1.0463E-02

 HEAD WILL BE SAVED ON UNIT   51 AT END OF TIME STEP   79, STRESS PERIOD    3

 DRAWDOWN WILL BE SAVED ON UNIT   52 AT END OF TIME STEP   79, STRESS PERIOD    3
1
  VOLUMETRIC BUDGET FOR ENTIRE MODEL AT END OF TIME STEP   79, STRESS PERIOD   3
  ------------------------------------------------------------------------------

     CUMULATIVE VOLUMES      L**3       RATES FOR THIS TIME STEP      L**3/T
     ------------------                 ------------------------

           IN:                                      IN:
           ---                                      ---
             STORAGE =       25999.7793               STORAGE =       1.5806E-02
       CONSTANT HEAD =           0.0000         CONSTANT HEAD =           0.0000
               WELLS =           0.0000                 WELLS =           0.0000
     HEAD DEP BOUNDS =       95681.5938       HEAD DEP BOUNDS =         609.9667

            TOTAL IN =      121681.3750              TOTAL IN =         609.9825

          OUT:                                     OUT:
          ----                                     ----
             STORAGE =           0.0000               STORAGE =           0.0000
       CONSTANT HEAD =           0.0000         CONSTANT HEAD =           0.0000
               WELLS =        7900.0000                 WELLS =         100.0000
     HEAD DEP BOUNDS =      113781.9297       HEAD DEP BOUNDS =         509.9876

           TOTAL OUT =      121681.9297             TOTAL OUT =         609.9877

            IN - OUT =          -0.5547              IN - OUT =      -5.1270E-03

 PERCENT DISCREPANCY =          -0.00     PERCENT DISCREPANCY =          -0.00






         TIME SUMMARY AT END OF TIME STEP   79 IN STRESS PERIOD    3
                    SECONDS     MINUTES      HOURS       DAYS        YEARS
                    -----------------------------------------------------------
   TIME STEP LENGTH  86400.      1440.0      24.000      1.0000     2.73785E-03
 STRESS PERIOD TIME 6.82560E+06 1.13760E+05  1896.0      79.000     0.21629    
         TOTAL TIME 1.55520E+07 2.59200E+05  4320.0      180.00     0.49281    
1

 SOLVING FOR HEAD 

 OUTPUT CONTROL FOR STRESS PERIOD    3   TIME STEP   80
    SAVE HEAD FOR ALL LAYERS
    SAVE DRAWDOWN FOR ALL LAYERS
    SAVE BUDGET
    PRINT HEAD FOR ALL LAYERS
    PRINT BUDGET
 UBDSV1 SAVING "         STORAGE" ON UNIT  53 AT TIME STEP 80, STRESS PERIOD   3
 UBDSV2 SAVING "   CONSTANT HEAD" ON UNIT  53 AT TIME STEP 80, STRESS PERIOD   3
 UBDSV1 SAVING "FLOW RIGHT FACE " ON UNIT  53 AT TIME STEP 80, STRESS PERIOD   3
 UBDSV1 SAVING "FLOW FRONT FACE " ON UNIT  53 AT TIME STEP 80, STRESS PERIOD   3
1
              HEAD IN LAYER   1 AT END OF TIME STEP  80 IN STRESS PERIOD    3
  ---------------------------------------------------------------------------

            1           2           3           4           5           6           7           8           9          10
 ........................................................................................................................
   1    9.990       8.786       7.591       6.418       5.277       4.177       3.111       2.068       1.036      1.0259E-02
   2    9.990       8.776       7.571       6.384       5.236       4.144       3.089       2.055       1.031      1.0205E-02
   3    9.990       8.759       7.530       6.314       5.140       4.072       3.047       2.033       1.021      1.0113E-02
   4    9.990       8.738       7.477       6.200       4.936       3.958       2.992       2.008       1.012      1.0021E-02
   5    9.989       8.728       7.441       6.074       4.447       3.832       2.955       1.997       1.009      9.9862E-03
   6    9.990       8.742       7.484       6.209       4.946       3.968       3.000       2.014       1.015      1.0053E-02
   7    9.990       8.766       7.544       6.332       5.160       4.092       3.064       2.045       1.028      1.0179E-02
   8    9.990       8.788       7.593       6.415       5.271       4.177       3.118       2.075       1.041      1.0309E-02
   9    9.990       8.804       7.626       6.465       5.330       4.228       3.154       2.097       1.051      1.0410E-02
  10    9.990       8.812       7.642       6.488       5.357       4.252       3.171       2.108       1.057      1.0463E-02

 HEAD WILL BE SAVED ON UNIT   51 AT END OF TIME STEP   80, STRESS PERIOD    3

 DRAWDOWN WILL BE SAVED ON UNIT   52 AT END OF TIME STEP   80, STRESS PERIOD    3
1
  VOLUMETRIC BUDGET FOR ENTIRE MODEL AT END OF TIME STEP   80, STRESS PERIOD   3
  ------------------------------------------------------------------------------

     CUMULATIVE VOLUMES      L**3       RATES FOR THIS TIME STEP      L**3/T
     ------------------                 ------------------------

           IN:                                      IN:
           ---                                      ---
             STORAGE =       25999.7930               STORAGE =       1.4150E-02
       CONSTANT HEAD =           0.0000         CONSTANT HEAD =           0.0000
               WELLS =           0.0000                 WELLS =           0.0000
     HEAD DEP BOUNDS =       96291.5625       HEAD DEP BOUNDS =         609.9676

            TOTAL IN =      122291.3594              TOTAL IN =         609.9818

          OUT:                                     OUT:
          ----                                     ----
             STORAGE =           0.0000               STORAGE =           0.0000
       CONSTANT HEAD =           0.0000         CONSTANT HEAD =           0.0000
               WELLS =        8000.0000                 WELLS =         100.0000
     HEAD DEP BOUNDS =      114291.9141       HEAD DEP BOUNDS =         509.9868

           TOTAL OUT =      122291.9141             TOTAL OUT =         609.9868

            IN - OUT =          -0.5547              IN - OUT =      -5.0659E-03

 PERCENT DISCREPANCY =          -0.00     PERCENT DISCREPANCY =          -0.00






         TIME SUMMARY AT END OF TIME STEP   80 IN STRESS PERIOD    3
                    SECONDS     MINUTES      HOURS       DAYS        YEARS
                    -----------------------------------------------------------
   TIME STEP LENGTH  86400.      1440.0      24.000      1.0000     2.73785E-03
 STRESS PERIOD TIME 6.91200E+06 1.15200E+05  1920.0      80.000     0.21903    
         TOTAL TIME 1.56384E+07 2.60640E+05  4344.0      181.00     0.49555    
1

 SOLVING FOR HEAD 

 OUTPUT CONTROL FOR STRESS PERIOD    3   TIME STEP   81
    SAVE HEAD FOR ALL LAYERS
    SAVE DRAWDOWN FOR ALL LAYERS
    SAVE BUDGET
    PRINT HEAD FOR ALL LAYERS
    PRINT BUDGET
 UBDSV1 SAVING "         STORAGE" ON UNIT  53 AT TIME STEP 81, STRESS PERIOD   3
 UBDSV2 SAVING "   CONSTANT HEAD" ON UNIT  53 AT TIME STEP 81, STRESS PERIOD   3
 UBDSV1 SAVING "FLOW RIGHT FACE " ON UNIT  53 AT TIME STEP 81, STRESS PERIOD   3
 UBDSV1 SAVING "FLOW FRONT FACE " ON UNIT  53 AT TIME STEP 81, STRESS PERIOD   3
1
              HEAD IN LAYER   1 AT END OF TIME STEP  81 IN STRESS PERIOD    3
  ---------------------------------------------------------------------------

            1           2           3           4           5           6           7           8           9          10
 ........................................................................................................................
   1    9.990       8.786       7.591       6.418       5.277       4.177       3.111       2.068       1.036      1.0259E-02
   2    9.990       8.776       7.570       6.384       5.236       4.144       3.089       2.055       1.031      1.0205E-02
   3    9.990       8.759       7.530       6.314       5.140       4.072       3.047       2.033       1.021      1.0113E-02
   4    9.990       8.738       7.477       6.200       4.936       3.958       2.992       2.008       1.012      1.0021E-02
   5    9.989       8.728       7.441       6.074       4.447       3.832       2.955       1.997       1.008      9.9861E-03
   6    9.990       8.742       7.484       6.209       4.946       3.968       3.000       2.014       1.015      1.0053E-02
   7    9.990       8.766       7.544       6.332       5.160       4.092       3.064       2.045       1.028      1.0179E-02
   8    9.990       8.788       7.593       6.415       5.271       4.177       3.118       2.075       1.041      1.0309E-02
   9    9.990       8.804       7.626       6.465       5.330       4.228       3.154       2.097       1.051      1.0410E-02
  10    9.990       8.812       7.642       6.488       5.357       4.252       3.171       2.108       1.057      1.0463E-02

 HEAD WILL BE SAVED ON UNIT   51 AT END OF TIME STEP   81, STRESS PERIOD    3

 DRAWDOWN WILL BE SAVED ON UNIT   52 AT END OF TIME STEP   81, STRESS PERIOD    3
1
  VOLUMETRIC BUDGET FOR ENTIRE MODEL AT END OF TIME STEP   81, STRESS PERIOD   3
  ------------------------------------------------------------------------------

     CUMULATIVE VOLUMES      L**3       RATES FOR THIS TIME STEP      L**3/T
     ------------------                 ------------------------

           IN:                                      IN:
           ---                                      ---
             STORAGE =       25999.8066               STORAGE =       1.2829E-02
       CONSTANT HEAD =           0.0000         CONSTANT HEAD =           0.0000
               WELLS =           0.0000                 WELLS =           0.0000
     HEAD DEP BOUNDS =       96901.5312       HEAD DEP BOUNDS =         609.9684

            TOTAL IN =      122901.3359              TOTAL IN =         609.9812

          OUT:                                     OUT:
          ----                                     ----
             STORAGE =           0.0000               STORAGE =           0.0000
       CONSTANT HEAD =           0.0000         CONSTANT HEAD =           0.0000
               WELLS =        8100.0000                 WELLS =         100.0000
     HEAD DEP BOUNDS =      114801.8984       HEAD DEP BOUNDS =         509.9860

           TOTAL OUT =      122901.8984             TOTAL OUT =         609.9860

            IN - OUT =          -0.5625              IN - OUT =      -4.8218E-03

 PERCENT DISCREPANCY =          -0.00     PERCENT DISCREPANCY =          -0.00






         TIME SUMMARY AT END OF TIME STEP   81 IN STRESS PERIOD    3
                    SECONDS     MINUTES      HOURS       DAYS        YEARS
                    -----------------------------------------------------------
   TIME STEP LENGTH  86400.      1440.0      24.000      1.0000     2.73785E-03
 STRESS PERIOD TIME 6.99840E+06 1.16640E+05  1944.0      81.000     0.22177    
         TOTAL TIME 1.57248E+07 2.62080E+05  4368.0      182.00     0.49829    
1

 SOLVING FOR HEAD 

 OUTPUT CONTROL FOR STRESS PERIOD    3   TIME STEP   82
    SAVE HEAD FOR ALL LAYERS
    SAVE DRAWDOWN FOR ALL LAYERS
    SAVE BUDGET
    PRINT HEAD FOR ALL LAYERS
    PRINT BUDGET
 UBDSV1 SAVING "         STORAGE" ON UNIT  53 AT TIME STEP 82, STRESS PERIOD   3
 UBDSV2 SAVING "   CONSTANT HEAD" ON UNIT  53 AT TIME STEP 82, STRESS PERIOD   3
 UBDSV1 SAVING "FLOW RIGHT FACE " ON UNIT  53 AT TIME STEP 82, STRESS PERIOD   3
 UBDSV1 SAVING "FLOW FRONT FACE " ON UNIT  53 AT TIME STEP 82, STRESS PERIOD   3
1
              HEAD IN LAYER   1 AT END OF TIME STEP  82 IN STRESS PERIOD    3
  ---------------------------------------------------------------------------

            1           2           3           4           5           6           7           8           9          10
 ........................................................................................................................
   1    9.990       8.786       7.591       6.418       5.277       4.177       3.111       2.068       1.036      1.0259E-02
   2    9.990       8.776       7.570       6.384       5.236       4.144       3.089       2.055       1.031      1.0205E-02
   3    9.990       8.759       7.530       6.314       5.140       4.072       3.047       2.033       1.021      1.0113E-02
   4    9.990       8.738       7.477       6.200       4.936       3.958       2.992       2.008       1.012      1.0021E-02
   5    9.989       8.728       7.441       6.074       4.447       3.832       2.955       1.997       1.008      9.9861E-03
   6    9.990       8.742       7.484       6.209       4.946       3.968       3.000       2.014       1.015      1.0053E-02
   7    9.990       8.766       7.544       6.332       5.160       4.092       3.064       2.045       1.028      1.0179E-02
   8    9.990       8.788       7.593       6.415       5.271       4.177       3.118       2.075       1.041      1.0309E-02
   9    9.990       8.804       7.626       6.465       5.330       4.228       3.154       2.097       1.051      1.0410E-02
  10    9.990       8.812       7.642       6.488       5.357       4.252       3.171       2.108       1.057      1.0463E-02

 HEAD WILL BE SAVED ON UNIT   51 AT END OF TIME STEP   82, STRESS PERIOD    3

 DRAWDOWN WILL BE SAVED ON UNIT   52 AT END OF TIME STEP   82, STRESS PERIOD    3
1
  VOLUMETRIC BUDGET FOR ENTIRE MODEL AT END OF TIME STEP   82, STRESS PERIOD   3
  ------------------------------------------------------------------------------

     CUMULATIVE VOLUMES      L**3       RATES FOR THIS TIME STEP      L**3/T
     ------------------                 ------------------------

           IN:                                      IN:
           ---                                      ---
             STORAGE =       25999.8184               STORAGE =       1.1325E-02
       CONSTANT HEAD =           0.0000         CONSTANT HEAD =           0.0000
               WELLS =           0.0000                 WELLS =           0.0000
     HEAD DEP BOUNDS =       97511.5000       HEAD DEP BOUNDS =         609.9691

            TOTAL IN =      123511.3203              TOTAL IN =         609.9804

          OUT:                                     OUT:
          ----                                     ----
             STORAGE =           0.0000               STORAGE =           0.0000
       CONSTANT HEAD =           0.0000         CONSTANT HEAD =           0.0000
               WELLS =        8200.0000                 WELLS =         100.0000
     HEAD DEP BOUNDS =      115311.8828       HEAD DEP BOUNDS =         509.9854

           TOTAL OUT =      123511.8828             TOTAL OUT =         609.9854

            IN - OUT =          -0.5625              IN - OUT =      -4.9438E-03

 PERCENT DISCREPANCY =          -0.00     PERCENT DISCREPANCY =          -0.00






         TIME SUMMARY AT END OF TIME STEP   82 IN STRESS PERIOD    3
                    SECONDS     MINUTES      HOURS       DAYS        YEARS
                    -----------------------------------------------------------
   TIME STEP LENGTH  86400.      1440.0      24.000      1.0000     2.73785E-03
 STRESS PERIOD TIME 7.08480E+06 1.18080E+05  1968.0      82.000     0.22450    
         TOTAL TIME 1.58112E+07 2.63520E+05  4392.0      183.00     0.50103    
1

 SOLVING FOR HEAD 

 OUTPUT CONTROL FOR STRESS PERIOD    3   TIME STEP   83
    SAVE HEAD FOR ALL LAYERS
    SAVE DRAWDOWN FOR ALL LAYERS
    SAVE BUDGET
    PRINT HEAD FOR ALL LAYERS
    PRINT BUDGET
 UBDSV1 SAVING "         STORAGE" ON UNIT  53 AT TIME STEP 83, STRESS PERIOD   3
 UBDSV2 SAVING "   CONSTANT HEAD" ON UNIT  53 AT TIME STEP 83, STRESS PERIOD   3
 UBDSV1 SAVING "FLOW RIGHT FACE " ON UNIT  53 AT TIME STEP 83, STRESS PERIOD   3
 UBDSV1 SAVING "FLOW FRONT FACE " ON UNIT  53 AT TIME STEP 83, STRESS PERIOD   3
1
              HEAD IN LAYER   1 AT END OF TIME STEP  83 IN STRESS PERIOD    3
  ---------------------------------------------------------------------------

            1           2           3           4           5           6           7           8           9          10
 ........................................................................................................................
   1    9.990       8.786       7.591       6.418       5.277       4.177       3.111       2.068       1.036      1.0259E-02
   2    9.990       8.776       7.570       6.384       5.236       4.144       3.089       2.055       1.031      1.0205E-02
   3    9.990       8.759       7.530       6.314       5.140       4.072       3.047       2.033       1.021      1.0113E-02
   4    9.990       8.738       7.477       6.200       4.936       3.958       2.992       2.008       1.012      1.0021E-02
   5    9.989       8.728       7.441       6.074       4.447       3.832       2.955       1.997       1.008      9.9861E-03
   6    9.990       8.742       7.484       6.209       4.946       3.968       3.000       2.014       1.015      1.0053E-02
   7    9.990       8.766       7.544       6.332       5.160       4.092       3.064       2.045       1.028      1.0179E-02
   8    9.990       8.788       7.593       6.415       5.271       4.177       3.118       2.075       1.041      1.0309E-02
   9    9.990       8.804       7.626       6.465       5.330       4.228       3.154       2.097       1.051      1.0410E-02
  10    9.990       8.812       7.642       6.488       5.357       4.252       3.171       2.108       1.057      1.0463E-02

 HEAD WILL BE SAVED ON UNIT   51 AT END OF TIME STEP   83, STRESS PERIOD    3

 DRAWDOWN WILL BE SAVED ON UNIT   52 AT END OF TIME STEP   83, STRESS PERIOD    3
1
  VOLUMETRIC BUDGET FOR ENTIRE MODEL AT END OF TIME STEP   83, STRESS PERIOD   3
  ------------------------------------------------------------------------------

     CUMULATIVE VOLUMES      L**3       RATES FOR THIS TIME STEP      L**3/T
     ------------------                 ------------------------

           IN:                                      IN:
           ---                                      ---
             STORAGE =       25999.8281               STORAGE =       1.0069E-02
       CONSTANT HEAD =           0.0000         CONSTANT HEAD =           0.0000
               WELLS =           0.0000                 WELLS =           0.0000
     HEAD DEP BOUNDS =       98121.4688       HEAD DEP BOUNDS =         609.9697

            TOTAL IN =      124121.2969              TOTAL IN =         609.9797

          OUT:                                     OUT:
          ----                                     ----
             STORAGE =           0.0000               STORAGE =           0.0000
       CONSTANT HEAD =           0.0000         CONSTANT HEAD =           0.0000
               WELLS =        8300.0000                 WELLS =         100.0000
     HEAD DEP BOUNDS =      115821.8672       HEAD DEP BOUNDS =         509.9847

           TOTAL OUT =      124121.8672             TOTAL OUT =         609.9847

            IN - OUT =          -0.5703              IN - OUT =      -5.0049E-03

 PERCENT DISCREPANCY =          -0.00     PERCENT DISCREPANCY =          -0.00






         TIME SUMMARY AT END OF TIME STEP   83 IN STRESS PERIOD    3
                    SECONDS     MINUTES      HOURS       DAYS        YEARS
                    -----------------------------------------------------------
   TIME STEP LENGTH  86400.      1440.0      24.000      1.0000     2.73785E-03
 STRESS PERIOD TIME 7.17120E+06 1.19520E+05  1992.0      83.000     0.22724    
         TOTAL TIME 1.58976E+07 2.64960E+05  4416.0      184.00     0.50376    
1

 SOLVING FOR HEAD 

 OUTPUT CONTROL FOR STRESS PERIOD    3   TIME STEP   84
    SAVE HEAD FOR ALL LAYERS
    SAVE DRAWDOWN FOR ALL LAYERS
    SAVE BUDGET
    PRINT HEAD FOR ALL LAYERS
    PRINT BUDGET
 UBDSV1 SAVING "         STORAGE" ON UNIT  53 AT TIME STEP 84, STRESS PERIOD   3
 UBDSV2 SAVING "   CONSTANT HEAD" ON UNIT  53 AT TIME STEP 84, STRESS PERIOD   3
 UBDSV1 SAVING "FLOW RIGHT FACE " ON UNIT  53 AT TIME STEP 84, STRESS PERIOD   3
 UBDSV1 SAVING "FLOW FRONT FACE " ON UNIT  53 AT TIME STEP 84, STRESS PERIOD   3
1
              HEAD IN LAYER   1 AT END OF TIME STEP  84 IN STRESS PERIOD    3
  ---------------------------------------------------------------------------

            1           2           3           4           5           6           7           8           9          10
 ........................................................................................................................
   1    9.990       8.786       7.591       6.418       5.277       4.177       3.111       2.068       1.036      1.0259E-02
   2    9.990       8.776       7.570       6.384       5.236       4.144       3.089       2.055       1.031      1.0205E-02
   3    9.990       8.759       7.530       6.314       5.140       4.072       3.047       2.033       1.021      1.0113E-02
   4    9.990       8.738       7.477       6.200       4.936       3.958       2.992       2.008       1.012      1.0021E-02
   5    9.989       8.728       7.441       6.074       4.447       3.832       2.955       1.997       1.008      9.9861E-03
   6    9.990       8.742       7.484       6.209       4.946       3.968       3.000       2.014       1.015      1.0053E-02
   7    9.990       8.766       7.544       6.332       5.160       4.092       3.064       2.045       1.028      1.0179E-02
   8    9.990       8.788       7.593       6.415       5.271       4.177       3.118       2.075       1.041      1.0309E-02
   9    9.990       8.804       7.626       6.465       5.330       4.228       3.154       2.097       1.051      1.0410E-02
  10    9.990       8.812       7.642       6.488       5.357       4.252       3.171       2.108       1.057      1.0463E-02

 HEAD WILL BE SAVED ON UNIT   51 AT END OF TIME STEP   84, STRESS PERIOD    3

 DRAWDOWN WILL BE SAVED ON UNIT   52 AT END OF TIME STEP   84, STRESS PERIOD    3
1
  VOLUMETRIC BUDGET FOR ENTIRE MODEL AT END OF TIME STEP   84, STRESS PERIOD   3
  ------------------------------------------------------------------------------

     CUMULATIVE VOLUMES      L**3       RATES FOR THIS TIME STEP      L**3/T
     ------------------                 ------------------------

           IN:                                      IN:
           ---                                      ---
             STORAGE =       25999.8379               STORAGE =       9.0806E-03
       CONSTANT HEAD =           0.0000         CONSTANT HEAD =           0.0000
               WELLS =           0.0000                 WELLS =           0.0000
     HEAD DEP BOUNDS =       98731.4375       HEAD DEP BOUNDS =         609.9702

            TOTAL IN =      124731.2734              TOTAL IN =         609.9793

          OUT:                                     OUT:
          ----                                     ----
             STORAGE =           0.0000               STORAGE =           0.0000
       CONSTANT HEAD =           0.0000         CONSTANT HEAD =           0.0000
               WELLS =        8400.0000                 WELLS =         100.0000
     HEAD DEP BOUNDS =      116331.8516       HEAD DEP BOUNDS =         509.9842

           TOTAL OUT =      124731.8516             TOTAL OUT =         609.9842

            IN - OUT =          -0.5781              IN - OUT =      -4.8828E-03

 PERCENT DISCREPANCY =          -0.00     PERCENT DISCREPANCY =          -0.00






         TIME SUMMARY AT END OF TIME STEP   84 IN STRESS PERIOD    3
                    SECONDS     MINUTES      HOURS       DAYS        YEARS
                    -----------------------------------------------------------
   TIME STEP LENGTH  86400.      1440.0      24.000      1.0000     2.73785E-03
 STRESS PERIOD TIME 7.25760E+06 1.20960E+05  2016.0      84.000     0.22998    
         TOTAL TIME 1.59840E+07 2.66400E+05  4440.0      185.00     0.50650    
1

 SOLVING FOR HEAD 

 OUTPUT CONTROL FOR STRESS PERIOD    3   TIME STEP   85
    SAVE HEAD FOR ALL LAYERS
    SAVE DRAWDOWN FOR ALL LAYERS
    SAVE BUDGET
    PRINT HEAD FOR ALL LAYERS
    PRINT BUDGET
 UBDSV1 SAVING "         STORAGE" ON UNIT  53 AT TIME STEP 85, STRESS PERIOD   3
 UBDSV2 SAVING "   CONSTANT HEAD" ON UNIT  53 AT TIME STEP 85, STRESS PERIOD   3
 UBDSV1 SAVING "FLOW RIGHT FACE " ON UNIT  53 AT TIME STEP 85, STRESS PERIOD   3
 UBDSV1 SAVING "FLOW FRONT FACE " ON UNIT  53 AT TIME STEP 85, STRESS PERIOD   3
1
              HEAD IN LAYER   1 AT END OF TIME STEP  85 IN STRESS PERIOD    3
  ---------------------------------------------------------------------------

            1           2           3           4           5           6           7           8           9          10
 ........................................................................................................................
   1    9.990       8.786       7.591       6.418       5.277       4.177       3.111       2.068       1.036      1.0259E-02
   2    9.990       8.776       7.570       6.384       5.236       4.144       3.089       2.055       1.031      1.0205E-02
   3    9.990       8.759       7.530       6.314       5.140       4.072       3.046       2.033       1.021      1.0113E-02
   4    9.990       8.738       7.477       6.200       4.936       3.958       2.992       2.008       1.012      1.0021E-02
   5    9.989       8.728       7.441       6.074       4.447       3.832       2.955       1.997       1.008      9.9861E-03
   6    9.990       8.742       7.484       6.209       4.946       3.968       3.000       2.014       1.015      1.0053E-02
   7    9.990       8.766       7.544       6.332       5.160       4.092       3.064       2.045       1.028      1.0179E-02
   8    9.990       8.788       7.593       6.415       5.271       4.177       3.118       2.075       1.041      1.0309E-02
   9    9.990       8.804       7.626       6.465       5.330       4.228       3.154       2.097       1.051      1.0410E-02
  10    9.990       8.812       7.642       6.488       5.357       4.252       3.171       2.108       1.057      1.0463E-02

 HEAD WILL BE SAVED ON UNIT   51 AT END OF TIME STEP   85, STRESS PERIOD    3

 DRAWDOWN WILL BE SAVED ON UNIT   52 AT END OF TIME STEP   85, STRESS PERIOD    3
1
  VOLUMETRIC BUDGET FOR ENTIRE MODEL AT END OF TIME STEP   85, STRESS PERIOD   3
  ------------------------------------------------------------------------------

     CUMULATIVE VOLUMES      L**3       RATES FOR THIS TIME STEP      L**3/T
     ------------------                 ------------------------

           IN:                                      IN:
           ---                                      ---
             STORAGE =       25999.8457               STORAGE =       8.0424E-03
       CONSTANT HEAD =           0.0000         CONSTANT HEAD =           0.0000
               WELLS =           0.0000                 WELLS =           0.0000
     HEAD DEP BOUNDS =       99341.4062       HEAD DEP BOUNDS =         609.9706

            TOTAL IN =      125341.2500              TOTAL IN =         609.9787

          OUT:                                     OUT:
          ----                                     ----
             STORAGE =           0.0000               STORAGE =           0.0000
       CONSTANT HEAD =           0.0000         CONSTANT HEAD =           0.0000
               WELLS =        8500.0000                 WELLS =         100.0000
     HEAD DEP BOUNDS =      116841.8359       HEAD DEP BOUNDS =         509.9837

           TOTAL OUT =      125341.8359             TOTAL OUT =         609.9837

            IN - OUT =          -0.5859              IN - OUT =      -5.0049E-03

 PERCENT DISCREPANCY =          -0.00     PERCENT DISCREPANCY =          -0.00






         TIME SUMMARY AT END OF TIME STEP   85 IN STRESS PERIOD    3
                    SECONDS     MINUTES      HOURS       DAYS        YEARS
                    -----------------------------------------------------------
   TIME STEP LENGTH  86400.      1440.0      24.000      1.0000     2.73785E-03
 STRESS PERIOD TIME 7.34400E+06 1.22400E+05  2040.0      85.000     0.23272    
         TOTAL TIME 1.60704E+07 2.67840E+05  4464.0      186.00     0.50924    
1

 SOLVING FOR HEAD 

 OUTPUT CONTROL FOR STRESS PERIOD    3   TIME STEP   86
    SAVE HEAD FOR ALL LAYERS
    SAVE DRAWDOWN FOR ALL LAYERS
    SAVE BUDGET
    PRINT HEAD FOR ALL LAYERS
    PRINT BUDGET
 UBDSV1 SAVING "         STORAGE" ON UNIT  53 AT TIME STEP 86, STRESS PERIOD   3
 UBDSV2 SAVING "   CONSTANT HEAD" ON UNIT  53 AT TIME STEP 86, STRESS PERIOD   3
 UBDSV1 SAVING "FLOW RIGHT FACE " ON UNIT  53 AT TIME STEP 86, STRESS PERIOD   3
 UBDSV1 SAVING "FLOW FRONT FACE " ON UNIT  53 AT TIME STEP 86, STRESS PERIOD   3
1
              HEAD IN LAYER   1 AT END OF TIME STEP  86 IN STRESS PERIOD    3
  ---------------------------------------------------------------------------

            1           2           3           4           5           6           7           8           9          10
 ........................................................................................................................
   1    9.990       8.786       7.591       6.418       5.277       4.177       3.111       2.068       1.036      1.0259E-02
   2    9.990       8.776       7.570       6.384       5.236       4.144       3.089       2.055       1.031      1.0205E-02
   3    9.990       8.759       7.530       6.314       5.139       4.072       3.046       2.033       1.021      1.0113E-02
   4    9.990       8.738       7.477       6.200       4.936       3.958       2.992       2.008       1.012      1.0021E-02
   5    9.989       8.728       7.441       6.074       4.447       3.832       2.955       1.997       1.008      9.9861E-03
   6    9.990       8.742       7.484       6.209       4.946       3.968       3.000       2.014       1.015      1.0053E-02
   7    9.990       8.766       7.544       6.332       5.160       4.092       3.064       2.045       1.028      1.0179E-02
   8    9.990       8.788       7.593       6.415       5.271       4.177       3.118       2.075       1.041      1.0309E-02
   9    9.990       8.804       7.626       6.465       5.330       4.228       3.154       2.097       1.051      1.0410E-02
  10    9.990       8.812       7.642       6.488       5.357       4.252       3.171       2.108       1.057      1.0463E-02

 HEAD WILL BE SAVED ON UNIT   51 AT END OF TIME STEP   86, STRESS PERIOD    3

 DRAWDOWN WILL BE SAVED ON UNIT   52 AT END OF TIME STEP   86, STRESS PERIOD    3
1
  VOLUMETRIC BUDGET FOR ENTIRE MODEL AT END OF TIME STEP   86, STRESS PERIOD   3
  ------------------------------------------------------------------------------

     CUMULATIVE VOLUMES      L**3       RATES FOR THIS TIME STEP      L**3/T
     ------------------                 ------------------------

           IN:                                      IN:
           ---                                      ---
             STORAGE =       25999.8535               STORAGE =       7.2712E-03
       CONSTANT HEAD =           0.0000         CONSTANT HEAD =           0.0000
               WELLS =           0.0000                 WELLS =           0.0000
     HEAD DEP BOUNDS =       99951.3750       HEAD DEP BOUNDS =         609.9711

            TOTAL IN =      125951.2266              TOTAL IN =         609.9783

          OUT:                                     OUT:
          ----                                     ----
             STORAGE =           0.0000               STORAGE =           0.0000
       CONSTANT HEAD =           0.0000         CONSTANT HEAD =           0.0000
               WELLS =        8600.0000                 WELLS =         100.0000
     HEAD DEP BOUNDS =      117351.8203       HEAD DEP BOUNDS =         509.9833

           TOTAL OUT =      125951.8203             TOTAL OUT =         609.9833

            IN - OUT =          -0.5938              IN - OUT =      -4.9438E-03

 PERCENT DISCREPANCY =          -0.00     PERCENT DISCREPANCY =          -0.00






         TIME SUMMARY AT END OF TIME STEP   86 IN STRESS PERIOD    3
                    SECONDS     MINUTES      HOURS       DAYS        YEARS
                    -----------------------------------------------------------
   TIME STEP LENGTH  86400.      1440.0      24.000      1.0000     2.73785E-03
 STRESS PERIOD TIME 7.43040E+06 1.23840E+05  2064.0      86.000     0.23546    
         TOTAL TIME 1.61568E+07 2.69280E+05  4488.0      187.00     0.51198    
1

 SOLVING FOR HEAD 

 OUTPUT CONTROL FOR STRESS PERIOD    3   TIME STEP   87
    SAVE HEAD FOR ALL LAYERS
    SAVE DRAWDOWN FOR ALL LAYERS
    SAVE BUDGET
    PRINT HEAD FOR ALL LAYERS
    PRINT BUDGET
 UBDSV1 SAVING "         STORAGE" ON UNIT  53 AT TIME STEP 87, STRESS PERIOD   3
 UBDSV2 SAVING "   CONSTANT HEAD" ON UNIT  53 AT TIME STEP 87, STRESS PERIOD   3
 UBDSV1 SAVING "FLOW RIGHT FACE " ON UNIT  53 AT TIME STEP 87, STRESS PERIOD   3
 UBDSV1 SAVING "FLOW FRONT FACE " ON UNIT  53 AT TIME STEP 87, STRESS PERIOD   3
1
              HEAD IN LAYER   1 AT END OF TIME STEP  87 IN STRESS PERIOD    3
  ---------------------------------------------------------------------------

            1           2           3           4           5           6           7           8           9          10
 ........................................................................................................................
   1    9.990       8.786       7.591       6.418       5.277       4.177       3.111       2.068       1.036      1.0259E-02
   2    9.990       8.776       7.570       6.384       5.236       4.144       3.089       2.055       1.031      1.0205E-02
   3    9.990       8.759       7.530       6.314       5.139       4.072       3.046       2.033       1.021      1.0113E-02
   4    9.990       8.738       7.477       6.200       4.936       3.958       2.992       2.008       1.012      1.0021E-02
   5    9.989       8.728       7.441       6.074       4.447       3.832       2.955       1.997       1.008      9.9861E-03
   6    9.990       8.742       7.484       6.209       4.946       3.968       3.000       2.014       1.015      1.0053E-02
   7    9.990       8.766       7.544       6.332       5.160       4.092       3.064       2.045       1.028      1.0179E-02
   8    9.990       8.788       7.593       6.415       5.271       4.177       3.117       2.075       1.041      1.0309E-02
   9    9.990       8.804       7.626       6.465       5.330       4.228       3.154       2.097       1.051      1.0410E-02
  10    9.990       8.812       7.642       6.488       5.357       4.252       3.171       2.108       1.057      1.0463E-02

 HEAD WILL BE SAVED ON UNIT   51 AT END OF TIME STEP   87, STRESS PERIOD    3

 DRAWDOWN WILL BE SAVED ON UNIT   52 AT END OF TIME STEP   87, STRESS PERIOD    3
1
  VOLUMETRIC BUDGET FOR ENTIRE MODEL AT END OF TIME STEP   87, STRESS PERIOD   3
  ------------------------------------------------------------------------------

     CUMULATIVE VOLUMES      L**3       RATES FOR THIS TIME STEP      L**3/T
     ------------------                 ------------------------

           IN:                                      IN:
           ---                                      ---
             STORAGE =       25999.8594               STORAGE =       6.4279E-03
       CONSTANT HEAD =           0.0000         CONSTANT HEAD =           0.0000
               WELLS =           0.0000                 WELLS =           0.0000
     HEAD DEP BOUNDS =      100561.3438       HEAD DEP BOUNDS =         609.9715

            TOTAL IN =      126561.2031              TOTAL IN =         609.9779

          OUT:                                     OUT:
          ----                                     ----
             STORAGE =           0.0000               STORAGE =           0.0000
       CONSTANT HEAD =           0.0000         CONSTANT HEAD =           0.0000
               WELLS =        8700.0000                 WELLS =         100.0000
     HEAD DEP BOUNDS =      117861.8047       HEAD DEP BOUNDS =         509.9829

           TOTAL OUT =      126561.8047             TOTAL OUT =         609.9829

            IN - OUT =          -0.6016              IN - OUT =      -5.0049E-03

 PERCENT DISCREPANCY =          -0.00     PERCENT DISCREPANCY =          -0.00






         TIME SUMMARY AT END OF TIME STEP   87 IN STRESS PERIOD    3
                    SECONDS     MINUTES      HOURS       DAYS        YEARS
                    -----------------------------------------------------------
   TIME STEP LENGTH  86400.      1440.0      24.000      1.0000     2.73785E-03
 STRESS PERIOD TIME 7.51680E+06 1.25280E+05  2088.0      87.000     0.23819    
         TOTAL TIME 1.62432E+07 2.70720E+05  4512.0      188.00     0.51472    
1

 SOLVING FOR HEAD 

 OUTPUT CONTROL FOR STRESS PERIOD    3   TIME STEP   88
    SAVE HEAD FOR ALL LAYERS
    SAVE DRAWDOWN FOR ALL LAYERS
    SAVE BUDGET
    PRINT HEAD FOR ALL LAYERS
    PRINT BUDGET
 UBDSV1 SAVING "         STORAGE" ON UNIT  53 AT TIME STEP 88, STRESS PERIOD   3
 UBDSV2 SAVING "   CONSTANT HEAD" ON UNIT  53 AT TIME STEP 88, STRESS PERIOD   3
 UBDSV1 SAVING "FLOW RIGHT FACE " ON UNIT  53 AT TIME STEP 88, STRESS PERIOD   3
 UBDSV1 SAVING "FLOW FRONT FACE " ON UNIT  53 AT TIME STEP 88, STRESS PERIOD   3
1
              HEAD IN LAYER   1 AT END OF TIME STEP  88 IN STRESS PERIOD    3
  ---------------------------------------------------------------------------

            1           2           3           4           5           6           7           8           9          10
 ........................................................................................................................
   1    9.990       8.786       7.591       6.418       5.277       4.177       3.111       2.068       1.036      1.0259E-02
   2    9.990       8.776       7.570       6.384       5.236       4.144       3.089       2.055       1.031      1.0205E-02
   3    9.990       8.759       7.530       6.314       5.139       4.072       3.046       2.033       1.021      1.0113E-02
   4    9.990       8.738       7.477       6.200       4.936       3.958       2.992       2.008       1.012      1.0021E-02
   5    9.989       8.728       7.441       6.074       4.447       3.832       2.955       1.997       1.008      9.9861E-03
   6    9.990       8.742       7.484       6.209       4.946       3.968       3.000       2.014       1.015      1.0053E-02
   7    9.990       8.766       7.544       6.332       5.160       4.092       3.064       2.045       1.028      1.0179E-02
   8    9.990       8.788       7.593       6.415       5.271       4.177       3.117       2.075       1.041      1.0309E-02
   9    9.990       8.804       7.626       6.465       5.330       4.228       3.154       2.097       1.051      1.0410E-02
  10    9.990       8.812       7.642       6.488       5.357       4.252       3.171       2.108       1.057      1.0463E-02

 HEAD WILL BE SAVED ON UNIT   51 AT END OF TIME STEP   88, STRESS PERIOD    3

 DRAWDOWN WILL BE SAVED ON UNIT   52 AT END OF TIME STEP   88, STRESS PERIOD    3
1
  VOLUMETRIC BUDGET FOR ENTIRE MODEL AT END OF TIME STEP   88, STRESS PERIOD   3
  ------------------------------------------------------------------------------

     CUMULATIVE VOLUMES      L**3       RATES FOR THIS TIME STEP      L**3/T
     ------------------                 ------------------------

           IN:                                      IN:
           ---                                      ---
             STORAGE =       25999.8652               STORAGE =       5.7713E-03
       CONSTANT HEAD =           0.0000         CONSTANT HEAD =           0.0000
               WELLS =           0.0000                 WELLS =           0.0000
     HEAD DEP BOUNDS =      101171.3125       HEAD DEP BOUNDS =         609.9718

            TOTAL IN =      127171.1797              TOTAL IN =         609.9776

          OUT:                                     OUT:
          ----                                     ----
             STORAGE =           0.0000               STORAGE =           0.0000
       CONSTANT HEAD =           0.0000         CONSTANT HEAD =           0.0000
               WELLS =        8800.0000                 WELLS =         100.0000
     HEAD DEP BOUNDS =      118371.7891       HEAD DEP BOUNDS =         509.9825

           TOTAL OUT =      127171.7891             TOTAL OUT =         609.9825

            IN - OUT =          -0.6094              IN - OUT =      -4.9438E-03

 PERCENT DISCREPANCY =          -0.00     PERCENT DISCREPANCY =          -0.00






         TIME SUMMARY AT END OF TIME STEP   88 IN STRESS PERIOD    3
                    SECONDS     MINUTES      HOURS       DAYS        YEARS
                    -----------------------------------------------------------
   TIME STEP LENGTH  86400.      1440.0      24.000      1.0000     2.73785E-03
 STRESS PERIOD TIME 7.60320E+06 1.26720E+05  2112.0      88.000     0.24093    
         TOTAL TIME 1.63296E+07 2.72160E+05  4536.0      189.00     0.51745    
1

 SOLVING FOR HEAD 

 OUTPUT CONTROL FOR STRESS PERIOD    3   TIME STEP   89
    SAVE HEAD FOR ALL LAYERS
    SAVE DRAWDOWN FOR ALL LAYERS
    SAVE BUDGET
    PRINT HEAD FOR ALL LAYERS
    PRINT BUDGET
 UBDSV1 SAVING "         STORAGE" ON UNIT  53 AT TIME STEP 89, STRESS PERIOD   3
 UBDSV2 SAVING "   CONSTANT HEAD" ON UNIT  53 AT TIME STEP 89, STRESS PERIOD   3
 UBDSV1 SAVING "FLOW RIGHT FACE " ON UNIT  53 AT TIME STEP 89, STRESS PERIOD   3
 UBDSV1 SAVING "FLOW FRONT FACE " ON UNIT  53 AT TIME STEP 89, STRESS PERIOD   3
1
              HEAD IN LAYER   1 AT END OF TIME STEP  89 IN STRESS PERIOD    3
  ---------------------------------------------------------------------------

            1           2           3           4           5           6           7           8           9          10
 ........................................................................................................................
   1    9.990       8.786       7.591       6.418       5.277       4.177       3.111       2.068       1.036      1.0259E-02
   2    9.990       8.776       7.570       6.384       5.236       4.144       3.089       2.055       1.031      1.0205E-02
   3    9.990       8.759       7.530       6.314       5.139       4.072       3.046       2.033       1.021      1.0113E-02
   4    9.990       8.738       7.477       6.200       4.936       3.958       2.992       2.008       1.012      1.0021E-02
   5    9.989       8.728       7.441       6.074       4.447       3.832       2.955       1.997       1.008      9.9861E-03
   6    9.990       8.742       7.484       6.209       4.946       3.968       3.000       2.014       1.015      1.0052E-02
   7    9.990       8.766       7.544       6.332       5.160       4.092       3.064       2.045       1.028      1.0179E-02
   8    9.990       8.788       7.593       6.415       5.271       4.177       3.117       2.075       1.041      1.0309E-02
   9    9.990       8.804       7.626       6.465       5.330       4.228       3.154       2.097       1.051      1.0410E-02
  10    9.990       8.812       7.642       6.488       5.357       4.252       3.171       2.108       1.057      1.0463E-02

 HEAD WILL BE SAVED ON UNIT   51 AT END OF TIME STEP   89, STRESS PERIOD    3

 DRAWDOWN WILL BE SAVED ON UNIT   52 AT END OF TIME STEP   89, STRESS PERIOD    3
1
  VOLUMETRIC BUDGET FOR ENTIRE MODEL AT END OF TIME STEP   89, STRESS PERIOD   3
  ------------------------------------------------------------------------------

     CUMULATIVE VOLUMES      L**3       RATES FOR THIS TIME STEP      L**3/T
     ------------------                 ------------------------

           IN:                                      IN:
           ---                                      ---
             STORAGE =       25999.8711               STORAGE =       5.1218E-03
       CONSTANT HEAD =           0.0000         CONSTANT HEAD =           0.0000
               WELLS =           0.0000                 WELLS =           0.0000
     HEAD DEP BOUNDS =      101781.2812       HEAD DEP BOUNDS =         609.9721

            TOTAL IN =      127781.1562              TOTAL IN =         609.9772

          OUT:                                     OUT:
          ----                                     ----
             STORAGE =           0.0000               STORAGE =           0.0000
       CONSTANT HEAD =           0.0000         CONSTANT HEAD =           0.0000
               WELLS =        8900.0000                 WELLS =         100.0000
     HEAD DEP BOUNDS =      118881.7734       HEAD DEP BOUNDS =         509.9823

           TOTAL OUT =      127781.7734             TOTAL OUT =         609.9823

            IN - OUT =          -0.6172              IN - OUT =      -5.0659E-03

 PERCENT DISCREPANCY =          -0.00     PERCENT DISCREPANCY =          -0.00






         TIME SUMMARY AT END OF TIME STEP   89 IN STRESS PERIOD    3
                    SECONDS     MINUTES      HOURS       DAYS        YEARS
                    -----------------------------------------------------------
   TIME STEP LENGTH  86400.      1440.0      24.000      1.0000     2.73785E-03
 STRESS PERIOD TIME 7.68960E+06 1.28160E+05  2136.0      89.000     0.24367    
         TOTAL TIME 1.64160E+07 2.73600E+05  4560.0      190.00     0.52019    
1

 SOLVING FOR HEAD 

 OUTPUT CONTROL FOR STRESS PERIOD    3   TIME STEP   90
    SAVE HEAD FOR ALL LAYERS
    SAVE DRAWDOWN FOR ALL LAYERS
    SAVE BUDGET
    PRINT HEAD FOR ALL LAYERS
    PRINT BUDGET
 UBDSV1 SAVING "         STORAGE" ON UNIT  53 AT TIME STEP 90, STRESS PERIOD   3
 UBDSV2 SAVING "   CONSTANT HEAD" ON UNIT  53 AT TIME STEP 90, STRESS PERIOD   3
 UBDSV1 SAVING "FLOW RIGHT FACE " ON UNIT  53 AT TIME STEP 90, STRESS PERIOD   3
 UBDSV1 SAVING "FLOW FRONT FACE " ON UNIT  53 AT TIME STEP 90, STRESS PERIOD   3
1
              HEAD IN LAYER   1 AT END OF TIME STEP  90 IN STRESS PERIOD    3
  ---------------------------------------------------------------------------

            1           2           3           4           5           6           7           8           9          10
 ........................................................................................................................
   1    9.990       8.786       7.591       6.418       5.277       4.177       3.111       2.068       1.036      1.0258E-02
   2    9.990       8.776       7.570       6.384       5.236       4.144       3.089       2.055       1.031      1.0205E-02
   3    9.990       8.759       7.530       6.314       5.139       4.072       3.046       2.033       1.021      1.0113E-02
   4    9.990       8.738       7.477       6.200       4.936       3.958       2.992       2.008       1.012      1.0021E-02
   5    9.989       8.728       7.441       6.074       4.447       3.832       2.955       1.997       1.008      9.9861E-03
   6    9.990       8.742       7.484       6.209       4.946       3.968       3.000       2.014       1.015      1.0052E-02
   7    9.990       8.766       7.544       6.332       5.160       4.092       3.064       2.045       1.028      1.0179E-02
   8    9.990       8.788       7.593       6.415       5.271       4.177       3.117       2.075       1.041      1.0309E-02
   9    9.990       8.804       7.626       6.465       5.330       4.228       3.154       2.097       1.051      1.0410E-02
  10    9.990       8.812       7.642       6.488       5.357       4.252       3.171       2.108       1.057      1.0463E-02

 HEAD WILL BE SAVED ON UNIT   51 AT END OF TIME STEP   90, STRESS PERIOD    3

 DRAWDOWN WILL BE SAVED ON UNIT   52 AT END OF TIME STEP   90, STRESS PERIOD    3
1
  VOLUMETRIC BUDGET FOR ENTIRE MODEL AT END OF TIME STEP   90, STRESS PERIOD   3
  ------------------------------------------------------------------------------

     CUMULATIVE VOLUMES      L**3       RATES FOR THIS TIME STEP      L**3/T
     ------------------                 ------------------------

           IN:                                      IN:
           ---                                      ---
             STORAGE =       25999.8750               STORAGE =       4.5499E-03
       CONSTANT HEAD =           0.0000         CONSTANT HEAD =           0.0000
               WELLS =           0.0000                 WELLS =           0.0000
     HEAD DEP BOUNDS =      102391.2500       HEAD DEP BOUNDS =         609.9724

            TOTAL IN =      128391.1250              TOTAL IN =         609.9770

          OUT:                                     OUT:
          ----                                     ----
             STORAGE =           0.0000               STORAGE =           0.0000
       CONSTANT HEAD =           0.0000         CONSTANT HEAD =           0.0000
               WELLS =        9000.0000                 WELLS =         100.0000
     HEAD DEP BOUNDS =      119391.7578       HEAD DEP BOUNDS =         509.9820

           TOTAL OUT =      128391.7578             TOTAL OUT =         609.9821

            IN - OUT =          -0.6328              IN - OUT =      -5.0659E-03

 PERCENT DISCREPANCY =          -0.00     PERCENT DISCREPANCY =          -0.00






         TIME SUMMARY AT END OF TIME STEP   90 IN STRESS PERIOD    3
                    SECONDS     MINUTES      HOURS       DAYS        YEARS
                    -----------------------------------------------------------
   TIME STEP LENGTH  86400.      1440.0      24.000      1.0000     2.73785E-03
 STRESS PERIOD TIME 7.77600E+06 1.29600E+05  2160.0      90.000     0.24641    
         TOTAL TIME 1.65024E+07 2.75040E+05  4584.0      191.00     0.52293    
1

 SOLVING FOR HEAD 

 OUTPUT CONTROL FOR STRESS PERIOD    3   TIME STEP   91
    SAVE HEAD FOR ALL LAYERS
    SAVE DRAWDOWN FOR ALL LAYERS
    SAVE BUDGET
    PRINT HEAD FOR ALL LAYERS
    PRINT BUDGET
 UBDSV1 SAVING "         STORAGE" ON UNIT  53 AT TIME STEP 91, STRESS PERIOD   3
 UBDSV2 SAVING "   CONSTANT HEAD" ON UNIT  53 AT TIME STEP 91, STRESS PERIOD   3
 UBDSV1 SAVING "FLOW RIGHT FACE " ON UNIT  53 AT TIME STEP 91, STRESS PERIOD   3
 UBDSV1 SAVING "FLOW FRONT FACE " ON UNIT  53 AT TIME STEP 91, STRESS PERIOD   3
1
              HEAD IN LAYER   1 AT END OF TIME STEP  91 IN STRESS PERIOD    3
  ---------------------------------------------------------------------------

            1           2           3           4           5           6           7           8           9          10
 ........................................................................................................................
   1    9.990       8.786       7.591       6.418       5.277       4.177       3.111       2.068       1.036      1.0258E-02
   2    9.990       8.776       7.570       6.384       5.236       4.144       3.089       2.055       1.031      1.0205E-02
   3    9.990       8.759       7.530       6.314       5.139       4.072       3.046       2.033       1.021      1.0113E-02
   4    9.990       8.738       7.477       6.200       4.936       3.958       2.992       2.008       1.012      1.0021E-02
   5    9.989       8.728       7.441       6.074       4.447       3.832       2.955       1.997       1.008      9.9861E-03
   6    9.990       8.742       7.484       6.209       4.946       3.968       3.000       2.014       1.015      1.0052E-02
   7    9.990       8.766       7.544       6.332       5.160       4.092       3.064       2.045       1.028      1.0179E-02
   8    9.990       8.788       7.593       6.415       5.271       4.177       3.117       2.075       1.041      1.0309E-02
   9    9.990       8.804       7.626       6.465       5.330       4.228       3.154       2.097       1.051      1.0410E-02
  10    9.990       8.812       7.642       6.488       5.357       4.252       3.171       2.108       1.057      1.0463E-02

 HEAD WILL BE SAVED ON UNIT   51 AT END OF TIME STEP   91, STRESS PERIOD    3

 DRAWDOWN WILL BE SAVED ON UNIT   52 AT END OF TIME STEP   91, STRESS PERIOD    3
1
  VOLUMETRIC BUDGET FOR ENTIRE MODEL AT END OF TIME STEP   91, STRESS PERIOD   3
  ------------------------------------------------------------------------------

     CUMULATIVE VOLUMES      L**3       RATES FOR THIS TIME STEP      L**3/T
     ------------------                 ------------------------

           IN:                                      IN:
           ---                                      ---
             STORAGE =       25999.8789               STORAGE =       4.0995E-03
       CONSTANT HEAD =           0.0000         CONSTANT HEAD =           0.0000
               WELLS =           0.0000                 WELLS =           0.0000
     HEAD DEP BOUNDS =      103001.2188       HEAD DEP BOUNDS =         609.9726

            TOTAL IN =      129001.0938              TOTAL IN =         609.9767

          OUT:                                     OUT:
          ----                                     ----
             STORAGE =           0.0000               STORAGE =           0.0000
       CONSTANT HEAD =           0.0000         CONSTANT HEAD =           0.0000
               WELLS =        9100.0000                 WELLS =         100.0000
     HEAD DEP BOUNDS =      119901.7422       HEAD DEP BOUNDS =         509.9818

           TOTAL OUT =      129001.7422             TOTAL OUT =         609.9818

            IN - OUT =          -0.6484              IN - OUT =      -5.0659E-03

 PERCENT DISCREPANCY =          -0.00     PERCENT DISCREPANCY =          -0.00






         TIME SUMMARY AT END OF TIME STEP   91 IN STRESS PERIOD    3
                    SECONDS     MINUTES      HOURS       DAYS        YEARS
                    -----------------------------------------------------------
   TIME STEP LENGTH  86400.      1440.0      24.000      1.0000     2.73785E-03
 STRESS PERIOD TIME 7.86240E+06 1.31040E+05  2184.0      91.000     0.24914    
         TOTAL TIME 1.65888E+07 2.76480E+05  4608.0      192.00     0.52567    
1

 SOLVING FOR HEAD 

 OUTPUT CONTROL FOR STRESS PERIOD    3   TIME STEP   92
    SAVE HEAD FOR ALL LAYERS
    SAVE DRAWDOWN FOR ALL LAYERS
    SAVE BUDGET
    PRINT HEAD FOR ALL LAYERS
    PRINT BUDGET
 UBDSV1 SAVING "         STORAGE" ON UNIT  53 AT TIME STEP 92, STRESS PERIOD   3
 UBDSV2 SAVING "   CONSTANT HEAD" ON UNIT  53 AT TIME STEP 92, STRESS PERIOD   3
 UBDSV1 SAVING "FLOW RIGHT FACE " ON UNIT  53 AT TIME STEP 92, STRESS PERIOD   3
 UBDSV1 SAVING "FLOW FRONT FACE " ON UNIT  53 AT TIME STEP 92, STRESS PERIOD   3
1
              HEAD IN LAYER   1 AT END OF TIME STEP  92 IN STRESS PERIOD    3
  ---------------------------------------------------------------------------

            1           2           3           4           5           6           7           8           9          10
 ........................................................................................................................
   1    9.990       8.786       7.591       6.418       5.277       4.177       3.111       2.068       1.036      1.0258E-02
   2    9.990       8.776       7.570       6.384       5.236       4.144       3.089       2.055       1.031      1.0205E-02
   3    9.990       8.759       7.530       6.314       5.139       4.072       3.046       2.033       1.021      1.0113E-02
   4    9.990       8.738       7.477       6.200       4.936       3.958       2.992       2.008       1.012      1.0021E-02
   5    9.989       8.728       7.441       6.074       4.447       3.832       2.955       1.997       1.008      9.9861E-03
   6    9.990       8.742       7.484       6.209       4.946       3.968       3.000       2.014       1.015      1.0052E-02
   7    9.990       8.766       7.544       6.332       5.160       4.092       3.064       2.045       1.028      1.0179E-02
   8    9.990       8.788       7.593       6.415       5.271       4.177       3.117       2.075       1.041      1.0309E-02
   9    9.990       8.804       7.626       6.465       5.330       4.228       3.154       2.097       1.051      1.0410E-02
  10    9.990       8.812       7.642       6.488       5.357       4.252       3.171       2.108       1.057      1.0463E-02

 HEAD WILL BE SAVED ON UNIT   51 AT END OF TIME STEP   92, STRESS PERIOD    3

 DRAWDOWN WILL BE SAVED ON UNIT   52 AT END OF TIME STEP   92, STRESS PERIOD    3
1
  VOLUMETRIC BUDGET FOR ENTIRE MODEL AT END OF TIME STEP   92, STRESS PERIOD   3
  ------------------------------------------------------------------------------

     CUMULATIVE VOLUMES      L**3       RATES FOR THIS TIME STEP      L**3/T
     ------------------                 ------------------------

           IN:                                      IN:
           ---                                      ---
             STORAGE =       25999.8828               STORAGE =       3.7332E-03
       CONSTANT HEAD =           0.0000         CONSTANT HEAD =           0.0000
               WELLS =           0.0000                 WELLS =           0.0000
     HEAD DEP BOUNDS =      103611.1953       HEAD DEP BOUNDS =         609.9728

            TOTAL IN =      129611.0781              TOTAL IN =         609.9766

          OUT:                                     OUT:
          ----                                     ----
             STORAGE =           0.0000               STORAGE =           0.0000
       CONSTANT HEAD =           0.0000         CONSTANT HEAD =           0.0000
               WELLS =        9200.0000                 WELLS =         100.0000
     HEAD DEP BOUNDS =      120411.7266       HEAD DEP BOUNDS =         509.9815

           TOTAL OUT =      129611.7266             TOTAL OUT =         609.9816

            IN - OUT =          -0.6484              IN - OUT =      -5.0049E-03

 PERCENT DISCREPANCY =          -0.00     PERCENT DISCREPANCY =          -0.00






         TIME SUMMARY AT END OF TIME STEP   92 IN STRESS PERIOD    3
                    SECONDS     MINUTES      HOURS       DAYS        YEARS
                    -----------------------------------------------------------
   TIME STEP LENGTH  86400.      1440.0      24.000      1.0000     2.73785E-03
 STRESS PERIOD TIME 7.94880E+06 1.32480E+05  2208.0      92.000     0.25188    
         TOTAL TIME 1.66752E+07 2.77920E+05  4632.0      193.00     0.52841    
1

 SOLVING FOR HEAD 

 OUTPUT CONTROL FOR STRESS PERIOD    3   TIME STEP   93
    SAVE HEAD FOR ALL LAYERS
    SAVE DRAWDOWN FOR ALL LAYERS
    SAVE BUDGET
    PRINT HEAD FOR ALL LAYERS
    PRINT BUDGET
 UBDSV1 SAVING "         STORAGE" ON UNIT  53 AT TIME STEP 93, STRESS PERIOD   3
 UBDSV2 SAVING "   CONSTANT HEAD" ON UNIT  53 AT TIME STEP 93, STRESS PERIOD   3
 UBDSV1 SAVING "FLOW RIGHT FACE " ON UNIT  53 AT TIME STEP 93, STRESS PERIOD   3
 UBDSV1 SAVING "FLOW FRONT FACE " ON UNIT  53 AT TIME STEP 93, STRESS PERIOD   3
1
              HEAD IN LAYER   1 AT END OF TIME STEP  93 IN STRESS PERIOD    3
  ---------------------------------------------------------------------------

            1           2           3           4           5           6           7           8           9          10
 ........................................................................................................................
   1    9.990       8.786       7.591       6.418       5.277       4.177       3.111       2.068       1.036      1.0258E-02
   2    9.990       8.776       7.570       6.384       5.236       4.144       3.089       2.055       1.031      1.0205E-02
   3    9.990       8.759       7.530       6.314       5.139       4.072       3.046       2.033       1.021      1.0113E-02
   4    9.990       8.738       7.477       6.200       4.936       3.958       2.992       2.008       1.012      1.0021E-02
   5    9.989       8.728       7.441       6.074       4.447       3.832       2.955       1.997       1.008      9.9860E-03
   6    9.990       8.742       7.484       6.209       4.946       3.968       3.000       2.014       1.015      1.0052E-02
   7    9.990       8.766       7.544       6.332       5.160       4.092       3.064       2.045       1.028      1.0179E-02
   8    9.990       8.788       7.593       6.415       5.271       4.177       3.117       2.075       1.041      1.0309E-02
   9    9.990       8.804       7.626       6.465       5.330       4.228       3.154       2.097       1.051      1.0410E-02
  10    9.990       8.812       7.642       6.488       5.357       4.252       3.171       2.108       1.057      1.0463E-02

 HEAD WILL BE SAVED ON UNIT   51 AT END OF TIME STEP   93, STRESS PERIOD    3

 DRAWDOWN WILL BE SAVED ON UNIT   52 AT END OF TIME STEP   93, STRESS PERIOD    3
1
  VOLUMETRIC BUDGET FOR ENTIRE MODEL AT END OF TIME STEP   93, STRESS PERIOD   3
  ------------------------------------------------------------------------------

     CUMULATIVE VOLUMES      L**3       RATES FOR THIS TIME STEP      L**3/T
     ------------------                 ------------------------

           IN:                                      IN:
           ---                                      ---
             STORAGE =       25999.8867               STORAGE =       3.3131E-03
       CONSTANT HEAD =           0.0000         CONSTANT HEAD =           0.0000
               WELLS =           0.0000                 WELLS =           0.0000
     HEAD DEP BOUNDS =      104221.1719       HEAD DEP BOUNDS =         609.9731

            TOTAL IN =      130221.0625              TOTAL IN =         609.9764

          OUT:                                     OUT:
          ----                                     ----
             STORAGE =           0.0000               STORAGE =           0.0000
       CONSTANT HEAD =           0.0000         CONSTANT HEAD =           0.0000
               WELLS =        9300.0000                 WELLS =         100.0000
     HEAD DEP BOUNDS =      120921.7109       HEAD DEP BOUNDS =         509.9813

           TOTAL OUT =      130221.7109             TOTAL OUT =         609.9813

            IN - OUT =          -0.6484              IN - OUT =      -4.9438E-03

 PERCENT DISCREPANCY =          -0.00     PERCENT DISCREPANCY =          -0.00






         TIME SUMMARY AT END OF TIME STEP   93 IN STRESS PERIOD    3
                    SECONDS     MINUTES      HOURS       DAYS        YEARS
                    -----------------------------------------------------------
   TIME STEP LENGTH  86400.      1440.0      24.000      1.0000     2.73785E-03
 STRESS PERIOD TIME 8.03520E+06 1.33920E+05  2232.0      93.000     0.25462    
         TOTAL TIME 1.67616E+07 2.79360E+05  4656.0      194.00     0.53114    
1

 SOLVING FOR HEAD 

 OUTPUT CONTROL FOR STRESS PERIOD    3   TIME STEP   94
    SAVE HEAD FOR ALL LAYERS
    SAVE DRAWDOWN FOR ALL LAYERS
    SAVE BUDGET
    PRINT HEAD FOR ALL LAYERS
    PRINT BUDGET
 UBDSV1 SAVING "         STORAGE" ON UNIT  53 AT TIME STEP 94, STRESS PERIOD   3
 UBDSV2 SAVING "   CONSTANT HEAD" ON UNIT  53 AT TIME STEP 94, STRESS PERIOD   3
 UBDSV1 SAVING "FLOW RIGHT FACE " ON UNIT  53 AT TIME STEP 94, STRESS PERIOD   3
 UBDSV1 SAVING "FLOW FRONT FACE " ON UNIT  53 AT TIME STEP 94, STRESS PERIOD   3
1
              HEAD IN LAYER   1 AT END OF TIME STEP  94 IN STRESS PERIOD    3
  ---------------------------------------------------------------------------

            1           2           3           4           5           6           7           8           9          10
 ........................................................................................................................
   1    9.990       8.786       7.591       6.418       5.277       4.177       3.111       2.068       1.036      1.0258E-02
   2    9.990       8.776       7.570       6.384       5.236       4.144       3.089       2.055       1.031      1.0205E-02
   3    9.990       8.759       7.530       6.314       5.139       4.072       3.046       2.033       1.021      1.0113E-02
   4    9.990       8.738       7.477       6.200       4.936       3.958       2.992       2.008       1.012      1.0021E-02
   5    9.989       8.728       7.441       6.074       4.447       3.832       2.955       1.997       1.008      9.9860E-03
   6    9.990       8.742       7.484       6.209       4.946       3.968       3.000       2.014       1.015      1.0052E-02
   7    9.990       8.766       7.544       6.332       5.160       4.092       3.064       2.045       1.028      1.0179E-02
   8    9.990       8.788       7.593       6.415       5.271       4.177       3.117       2.075       1.041      1.0309E-02
   9    9.990       8.804       7.626       6.465       5.330       4.228       3.154       2.097       1.051      1.0410E-02
  10    9.990       8.812       7.642       6.488       5.357       4.252       3.171       2.108       1.057      1.0463E-02

 HEAD WILL BE SAVED ON UNIT   51 AT END OF TIME STEP   94, STRESS PERIOD    3

 DRAWDOWN WILL BE SAVED ON UNIT   52 AT END OF TIME STEP   94, STRESS PERIOD    3
1
  VOLUMETRIC BUDGET FOR ENTIRE MODEL AT END OF TIME STEP   94, STRESS PERIOD   3
  ------------------------------------------------------------------------------

     CUMULATIVE VOLUMES      L**3       RATES FOR THIS TIME STEP      L**3/T
     ------------------                 ------------------------

           IN:                                      IN:
           ---                                      ---
             STORAGE =       25999.8887               STORAGE =       2.7254E-03
       CONSTANT HEAD =           0.0000         CONSTANT HEAD =           0.0000
               WELLS =           0.0000                 WELLS =           0.0000
     HEAD DEP BOUNDS =      104831.1484       HEAD DEP BOUNDS =         609.9733

            TOTAL IN =      130831.0391              TOTAL IN =         609.9760

          OUT:                                     OUT:
          ----                                     ----
             STORAGE =           0.0000               STORAGE =           0.0000
       CONSTANT HEAD =           0.0000         CONSTANT HEAD =           0.0000
               WELLS =        9400.0000                 WELLS =         100.0000
     HEAD DEP BOUNDS =      121431.6953       HEAD DEP BOUNDS =         509.9811

           TOTAL OUT =      130831.6953             TOTAL OUT =         609.9811

            IN - OUT =          -0.6562              IN - OUT =      -5.1270E-03

 PERCENT DISCREPANCY =          -0.00     PERCENT DISCREPANCY =          -0.00






         TIME SUMMARY AT END OF TIME STEP   94 IN STRESS PERIOD    3
                    SECONDS     MINUTES      HOURS       DAYS        YEARS
                    -----------------------------------------------------------
   TIME STEP LENGTH  86400.      1440.0      24.000      1.0000     2.73785E-03
 STRESS PERIOD TIME 8.12160E+06 1.35360E+05  2256.0      94.000     0.25736    
         TOTAL TIME 1.68480E+07 2.80800E+05  4680.0      195.00     0.53388    
1

 SOLVING FOR HEAD 

 OUTPUT CONTROL FOR STRESS PERIOD    3   TIME STEP   95
    SAVE HEAD FOR ALL LAYERS
    SAVE DRAWDOWN FOR ALL LAYERS
    SAVE BUDGET
    PRINT HEAD FOR ALL LAYERS
    PRINT BUDGET
 UBDSV1 SAVING "         STORAGE" ON UNIT  53 AT TIME STEP 95, STRESS PERIOD   3
 UBDSV2 SAVING "   CONSTANT HEAD" ON UNIT  53 AT TIME STEP 95, STRESS PERIOD   3
 UBDSV1 SAVING "FLOW RIGHT FACE " ON UNIT  53 AT TIME STEP 95, STRESS PERIOD   3
 UBDSV1 SAVING "FLOW FRONT FACE " ON UNIT  53 AT TIME STEP 95, STRESS PERIOD   3
1
              HEAD IN LAYER   1 AT END OF TIME STEP  95 IN STRESS PERIOD    3
  ---------------------------------------------------------------------------

            1           2           3           4           5           6           7           8           9          10
 ........................................................................................................................
   1    9.990       8.786       7.591       6.418       5.277       4.177       3.111       2.068       1.036      1.0258E-02
   2    9.990       8.776       7.570       6.384       5.236       4.144       3.089       2.055       1.031      1.0205E-02
   3    9.990       8.759       7.530       6.314       5.139       4.072       3.046       2.033       1.021      1.0113E-02
   4    9.990       8.738       7.477       6.200       4.936       3.958       2.992       2.008       1.012      1.0021E-02
   5    9.989       8.728       7.441       6.074       4.447       3.832       2.955       1.997       1.008      9.9860E-03
   6    9.990       8.742       7.484       6.209       4.946       3.968       3.000       2.014       1.015      1.0052E-02
   7    9.990       8.766       7.544       6.332       5.160       4.092       3.064       2.045       1.028      1.0179E-02
   8    9.990       8.788       7.593       6.415       5.271       4.177       3.117       2.075       1.041      1.0309E-02
   9    9.990       8.804       7.626       6.465       5.330       4.228       3.154       2.097       1.051      1.0410E-02
  10    9.990       8.812       7.642       6.488       5.357       4.252       3.171       2.108       1.057      1.0463E-02

 HEAD WILL BE SAVED ON UNIT   51 AT END OF TIME STEP   95, STRESS PERIOD    3

 DRAWDOWN WILL BE SAVED ON UNIT   52 AT END OF TIME STEP   95, STRESS PERIOD    3
1
  VOLUMETRIC BUDGET FOR ENTIRE MODEL AT END OF TIME STEP   95, STRESS PERIOD   3
  ------------------------------------------------------------------------------

     CUMULATIVE VOLUMES      L**3       RATES FOR THIS TIME STEP      L**3/T
     ------------------                 ------------------------

           IN:                                      IN:
           ---                                      ---
             STORAGE =       25999.8906               STORAGE =       2.5459E-03
       CONSTANT HEAD =           0.0000         CONSTANT HEAD =           0.0000
               WELLS =           0.0000                 WELLS =           0.0000
     HEAD DEP BOUNDS =      105441.1250       HEAD DEP BOUNDS =         609.9734

            TOTAL IN =      131441.0156              TOTAL IN =         609.9760

          OUT:                                     OUT:
          ----                                     ----
             STORAGE =           0.0000               STORAGE =           0.0000
       CONSTANT HEAD =           0.0000         CONSTANT HEAD =           0.0000
               WELLS =        9500.0000                 WELLS =         100.0000
     HEAD DEP BOUNDS =      121941.6797       HEAD DEP BOUNDS =         509.9810

           TOTAL OUT =      131441.6875             TOTAL OUT =         609.9810

            IN - OUT =          -0.6719              IN - OUT =      -5.0049E-03

 PERCENT DISCREPANCY =          -0.00     PERCENT DISCREPANCY =          -0.00






         TIME SUMMARY AT END OF TIME STEP   95 IN STRESS PERIOD    3
                    SECONDS     MINUTES      HOURS       DAYS        YEARS
                    -----------------------------------------------------------
   TIME STEP LENGTH  86400.      1440.0      24.000      1.0000     2.73785E-03
 STRESS PERIOD TIME 8.20800E+06 1.36800E+05  2280.0      95.000     0.26010    
         TOTAL TIME 1.69344E+07 2.82240E+05  4704.0      196.00     0.53662    
1

 SOLVING FOR HEAD 

 OUTPUT CONTROL FOR STRESS PERIOD    3   TIME STEP   96
    SAVE HEAD FOR ALL LAYERS
    SAVE DRAWDOWN FOR ALL LAYERS
    SAVE BUDGET
    PRINT HEAD FOR ALL LAYERS
    PRINT BUDGET
 UBDSV1 SAVING "         STORAGE" ON UNIT  53 AT TIME STEP 96, STRESS PERIOD   3
 UBDSV2 SAVING "   CONSTANT HEAD" ON UNIT  53 AT TIME STEP 96, STRESS PERIOD   3
 UBDSV1 SAVING "FLOW RIGHT FACE " ON UNIT  53 AT TIME STEP 96, STRESS PERIOD   3
 UBDSV1 SAVING "FLOW FRONT FACE " ON UNIT  53 AT TIME STEP 96, STRESS PERIOD   3
1
              HEAD IN LAYER   1 AT END OF TIME STEP  96 IN STRESS PERIOD    3
  ---------------------------------------------------------------------------

            1           2           3           4           5           6           7           8           9          10
 ........................................................................................................................
   1    9.990       8.786       7.591       6.418       5.277       4.177       3.111       2.068       1.036      1.0258E-02
   2    9.990       8.776       7.570       6.384       5.236       4.144       3.089       2.055       1.031      1.0205E-02
   3    9.990       8.759       7.530       6.314       5.139       4.072       3.046       2.033       1.021      1.0113E-02
   4    9.990       8.738       7.477       6.200       4.936       3.958       2.992       2.008       1.012      1.0021E-02
   5    9.989       8.728       7.441       6.074       4.447       3.832       2.955       1.997       1.008      9.9860E-03
   6    9.990       8.742       7.484       6.209       4.946       3.968       3.000       2.014       1.015      1.0052E-02
   7    9.990       8.766       7.544       6.332       5.160       4.092       3.064       2.045       1.028      1.0178E-02
   8    9.990       8.788       7.593       6.415       5.271       4.177       3.117       2.075       1.041      1.0309E-02
   9    9.990       8.804       7.626       6.465       5.330       4.228       3.154       2.097       1.051      1.0410E-02
  10    9.990       8.812       7.642       6.488       5.357       4.252       3.171       2.108       1.057      1.0463E-02

 HEAD WILL BE SAVED ON UNIT   51 AT END OF TIME STEP   96, STRESS PERIOD    3

 DRAWDOWN WILL BE SAVED ON UNIT   52 AT END OF TIME STEP   96, STRESS PERIOD    3
1
  VOLUMETRIC BUDGET FOR ENTIRE MODEL AT END OF TIME STEP   96, STRESS PERIOD   3
  ------------------------------------------------------------------------------

     CUMULATIVE VOLUMES      L**3       RATES FOR THIS TIME STEP      L**3/T
     ------------------                 ------------------------

           IN:                                      IN:
           ---                                      ---
             STORAGE =       25999.8926               STORAGE =       2.5879E-03
       CONSTANT HEAD =           0.0000         CONSTANT HEAD =           0.0000
               WELLS =           0.0000                 WELLS =           0.0000
     HEAD DEP BOUNDS =      106051.1016       HEAD DEP BOUNDS =         609.9734

            TOTAL IN =      132051.0000              TOTAL IN =         609.9760

          OUT:                                     OUT:
          ----                                     ----
             STORAGE =           0.0000               STORAGE =           0.0000
       CONSTANT HEAD =           0.0000         CONSTANT HEAD =           0.0000
               WELLS =        9600.0000                 WELLS =         100.0000
     HEAD DEP BOUNDS =      122451.6641       HEAD DEP BOUNDS =         509.9809

           TOTAL OUT =      132051.6562             TOTAL OUT =         609.9808

            IN - OUT =          -0.6562              IN - OUT =      -4.8218E-03

 PERCENT DISCREPANCY =          -0.00     PERCENT DISCREPANCY =          -0.00






         TIME SUMMARY AT END OF TIME STEP   96 IN STRESS PERIOD    3
                    SECONDS     MINUTES      HOURS       DAYS        YEARS
                    -----------------------------------------------------------
   TIME STEP LENGTH  86400.      1440.0      24.000      1.0000     2.73785E-03
 STRESS PERIOD TIME 8.29440E+06 1.38240E+05  2304.0      96.000     0.26283    
         TOTAL TIME 1.70208E+07 2.83680E+05  4728.0      197.00     0.53936    
1

 SOLVING FOR HEAD 

 OUTPUT CONTROL FOR STRESS PERIOD    3   TIME STEP   97
    SAVE HEAD FOR ALL LAYERS
    SAVE DRAWDOWN FOR ALL LAYERS
    SAVE BUDGET
    PRINT HEAD FOR ALL LAYERS
    PRINT BUDGET
 UBDSV1 SAVING "         STORAGE" ON UNIT  53 AT TIME STEP 97, STRESS PERIOD   3
 UBDSV2 SAVING "   CONSTANT HEAD" ON UNIT  53 AT TIME STEP 97, STRESS PERIOD   3
 UBDSV1 SAVING "FLOW RIGHT FACE " ON UNIT  53 AT TIME STEP 97, STRESS PERIOD   3
 UBDSV1 SAVING "FLOW FRONT FACE " ON UNIT  53 AT TIME STEP 97, STRESS PERIOD   3
1
              HEAD IN LAYER   1 AT END OF TIME STEP  97 IN STRESS PERIOD    3
  ---------------------------------------------------------------------------

            1           2           3           4           5           6           7           8           9          10
 ........................................................................................................................
   1    9.990       8.786       7.591       6.418       5.277       4.177       3.111       2.068       1.036      1.0258E-02
   2    9.990       8.776       7.570       6.384       5.236       4.144       3.089       2.055       1.031      1.0205E-02
   3    9.990       8.759       7.530       6.314       5.139       4.072       3.046       2.033       1.021      1.0113E-02
   4    9.990       8.738       7.477       6.200       4.936       3.958       2.992       2.008       1.012      1.0021E-02
   5    9.989       8.728       7.441       6.074       4.447       3.832       2.955       1.997       1.008      9.9860E-03
   6    9.990       8.742       7.484       6.209       4.946       3.968       3.000       2.014       1.015      1.0052E-02
   7    9.990       8.766       7.544       6.332       5.160       4.092       3.064       2.045       1.028      1.0178E-02
   8    9.990       8.788       7.593       6.415       5.271       4.177       3.117       2.075       1.041      1.0309E-02
   9    9.990       8.804       7.626       6.465       5.330       4.228       3.154       2.097       1.051      1.0410E-02
  10    9.990       8.812       7.642       6.488       5.357       4.252       3.171       2.108       1.057      1.0463E-02

 HEAD WILL BE SAVED ON UNIT   51 AT END OF TIME STEP   97, STRESS PERIOD    3

 DRAWDOWN WILL BE SAVED ON UNIT   52 AT END OF TIME STEP   97, STRESS PERIOD    3
1
  VOLUMETRIC BUDGET FOR ENTIRE MODEL AT END OF TIME STEP   97, STRESS PERIOD   3
  ------------------------------------------------------------------------------

     CUMULATIVE VOLUMES      L**3       RATES FOR THIS TIME STEP      L**3/T
     ------------------                 ------------------------

           IN:                                      IN:
           ---                                      ---
             STORAGE =       25999.8945               STORAGE =       1.9467E-03
       CONSTANT HEAD =           0.0000         CONSTANT HEAD =           0.0000
               WELLS =           0.0000                 WELLS =           0.0000
     HEAD DEP BOUNDS =      106661.0781       HEAD DEP BOUNDS =         609.9736

            TOTAL IN =      132660.9688              TOTAL IN =         609.9756

          OUT:                                     OUT:
          ----                                     ----
             STORAGE =           0.0000               STORAGE =           0.0000
       CONSTANT HEAD =           0.0000         CONSTANT HEAD =           0.0000
               WELLS =        9700.0000                 WELLS =         100.0000
     HEAD DEP BOUNDS =      122961.6484       HEAD DEP BOUNDS =         509.9807

           TOTAL OUT =      132661.6562             TOTAL OUT =         609.9807

            IN - OUT =          -0.6875              IN - OUT =      -5.1270E-03

 PERCENT DISCREPANCY =          -0.00     PERCENT DISCREPANCY =          -0.00






         TIME SUMMARY AT END OF TIME STEP   97 IN STRESS PERIOD    3
                    SECONDS     MINUTES      HOURS       DAYS        YEARS
                    -----------------------------------------------------------
   TIME STEP LENGTH  86400.      1440.0      24.000      1.0000     2.73785E-03
 STRESS PERIOD TIME 8.38080E+06 1.39680E+05  2328.0      97.000     0.26557    
         TOTAL TIME 1.71072E+07 2.85120E+05  4752.0      198.00     0.54209    
1

 SOLVING FOR HEAD 

 OUTPUT CONTROL FOR STRESS PERIOD    3   TIME STEP   98
    SAVE HEAD FOR ALL LAYERS
    SAVE DRAWDOWN FOR ALL LAYERS
    SAVE BUDGET
    PRINT HEAD FOR ALL LAYERS
    PRINT BUDGET
 UBDSV1 SAVING "         STORAGE" ON UNIT  53 AT TIME STEP 98, STRESS PERIOD   3
 UBDSV2 SAVING "   CONSTANT HEAD" ON UNIT  53 AT TIME STEP 98, STRESS PERIOD   3
 UBDSV1 SAVING "FLOW RIGHT FACE " ON UNIT  53 AT TIME STEP 98, STRESS PERIOD   3
 UBDSV1 SAVING "FLOW FRONT FACE " ON UNIT  53 AT TIME STEP 98, STRESS PERIOD   3
1
              HEAD IN LAYER   1 AT END OF TIME STEP  98 IN STRESS PERIOD    3
  ---------------------------------------------------------------------------

            1           2           3           4           5           6           7           8           9          10
 ........................................................................................................................
   1    9.990       8.786       7.591       6.418       5.277       4.177       3.111       2.068       1.036      1.0258E-02
   2    9.990       8.776       7.570       6.384       5.236       4.144       3.089       2.055       1.031      1.0205E-02
   3    9.990       8.759       7.530       6.314       5.139       4.072       3.046       2.033       1.021      1.0113E-02
   4    9.990       8.738       7.477       6.200       4.936       3.958       2.992       2.008       1.012      1.0021E-02
   5    9.989       8.728       7.441       6.074       4.447       3.832       2.955       1.997       1.008      9.9860E-03
   6    9.990       8.742       7.484       6.209       4.946       3.968       3.000       2.014       1.015      1.0052E-02
   7    9.990       8.766       7.544       6.332       5.160       4.092       3.064       2.045       1.028      1.0178E-02
   8    9.990       8.788       7.593       6.415       5.271       4.177       3.117       2.075       1.041      1.0309E-02
   9    9.990       8.804       7.626       6.465       5.330       4.228       3.154       2.097       1.051      1.0410E-02
  10    9.990       8.812       7.642       6.488       5.357       4.252       3.171       2.108       1.057      1.0463E-02

 HEAD WILL BE SAVED ON UNIT   51 AT END OF TIME STEP   98, STRESS PERIOD    3

 DRAWDOWN WILL BE SAVED ON UNIT   52 AT END OF TIME STEP   98, STRESS PERIOD    3
1
  VOLUMETRIC BUDGET FOR ENTIRE MODEL AT END OF TIME STEP   98, STRESS PERIOD   3
  ------------------------------------------------------------------------------

     CUMULATIVE VOLUMES      L**3       RATES FOR THIS TIME STEP      L**3/T
     ------------------                 ------------------------

           IN:                                      IN:
           ---                                      ---
             STORAGE =       25999.8965               STORAGE =       1.9124E-03
       CONSTANT HEAD =           0.0000         CONSTANT HEAD =           0.0000
               WELLS =           0.0000                 WELLS =           0.0000
     HEAD DEP BOUNDS =      107271.0547       HEAD DEP BOUNDS =         609.9738

            TOTAL IN =      133270.9531              TOTAL IN =         609.9756

          OUT:                                     OUT:
          ----                                     ----
             STORAGE =           0.0000               STORAGE =           0.0000
       CONSTANT HEAD =           0.0000         CONSTANT HEAD =           0.0000
               WELLS =        9800.0000                 WELLS =         100.0000
     HEAD DEP BOUNDS =      123471.6328       HEAD DEP BOUNDS =         509.9806

           TOTAL OUT =      133271.6250             TOTAL OUT =         609.9806

            IN - OUT =          -0.6719              IN - OUT =      -4.9438E-03

 PERCENT DISCREPANCY =          -0.00     PERCENT DISCREPANCY =          -0.00






         TIME SUMMARY AT END OF TIME STEP   98 IN STRESS PERIOD    3
                    SECONDS     MINUTES      HOURS       DAYS        YEARS
                    -----------------------------------------------------------
   TIME STEP LENGTH  86400.      1440.0      24.000      1.0000     2.73785E-03
 STRESS PERIOD TIME 8.46720E+06 1.41120E+05  2352.0      98.000     0.26831    
         TOTAL TIME 1.71936E+07 2.86560E+05  4776.0      199.00     0.54483    
1

 SOLVING FOR HEAD 

 OUTPUT CONTROL FOR STRESS PERIOD    3   TIME STEP   99
    SAVE HEAD FOR ALL LAYERS
    SAVE DRAWDOWN FOR ALL LAYERS
    SAVE BUDGET
    PRINT HEAD FOR ALL LAYERS
    PRINT BUDGET
 UBDSV1 SAVING "         STORAGE" ON UNIT  53 AT TIME STEP 99, STRESS PERIOD   3
 UBDSV2 SAVING "   CONSTANT HEAD" ON UNIT  53 AT TIME STEP 99, STRESS PERIOD   3
 UBDSV1 SAVING "FLOW RIGHT FACE " ON UNIT  53 AT TIME STEP 99, STRESS PERIOD   3
 UBDSV1 SAVING "FLOW FRONT FACE " ON UNIT  53 AT TIME STEP 99, STRESS PERIOD   3
1
              HEAD IN LAYER   1 AT END OF TIME STEP  99 IN STRESS PERIOD    3
  ---------------------------------------------------------------------------

            1           2           3           4           5           6           7           8           9          10
 ........................................................................................................................
   1    9.990       8.786       7.591       6.418       5.277       4.177       3.111       2.068       1.036      1.0258E-02
   2    9.990       8.776       7.570       6.384       5.236       4.144       3.089       2.055       1.031      1.0205E-02
   3    9.990       8.759       7.530       6.314       5.139       4.072       3.046       2.033       1.021      1.0113E-02
   4    9.990       8.738       7.477       6.200       4.936       3.958       2.992       2.008       1.012      1.0021E-02
   5    9.989       8.728       7.441       6.074       4.447       3.832       2.955       1.997       1.008      9.9860E-03
   6    9.990       8.742       7.484       6.209       4.946       3.968       3.000       2.014       1.015      1.0052E-02
   7    9.990       8.766       7.544       6.332       5.160       4.092       3.064       2.045       1.028      1.0178E-02
   8    9.990       8.788       7.593       6.415       5.271       4.177       3.117       2.075       1.041      1.0309E-02
   9    9.990       8.804       7.626       6.465       5.330       4.228       3.154       2.097       1.051      1.0410E-02
  10    9.990       8.812       7.642       6.488       5.357       4.252       3.171       2.108       1.057      1.0463E-02

 HEAD WILL BE SAVED ON UNIT   51 AT END OF TIME STEP   99, STRESS PERIOD    3

 DRAWDOWN WILL BE SAVED ON UNIT   52 AT END OF TIME STEP   99, STRESS PERIOD    3
1
  VOLUMETRIC BUDGET FOR ENTIRE MODEL AT END OF TIME STEP   99, STRESS PERIOD   3
  ------------------------------------------------------------------------------

     CUMULATIVE VOLUMES      L**3       RATES FOR THIS TIME STEP      L**3/T
     ------------------                 ------------------------

           IN:                                      IN:
           ---                                      ---
             STORAGE =       25999.8984               STORAGE =       1.6644E-03
       CONSTANT HEAD =           0.0000         CONSTANT HEAD =           0.0000
               WELLS =           0.0000                 WELLS =           0.0000
     HEAD DEP BOUNDS =      107881.0312       HEAD DEP BOUNDS =         609.9738

            TOTAL IN =      133880.9375              TOTAL IN =         609.9755

          OUT:                                     OUT:
          ----                                     ----
             STORAGE =           0.0000               STORAGE =           0.0000
       CONSTANT HEAD =           0.0000         CONSTANT HEAD =           0.0000
               WELLS =        9900.0000                 WELLS =         100.0000
     HEAD DEP BOUNDS =      123981.6172       HEAD DEP BOUNDS =         509.9805

           TOTAL OUT =      133881.6250             TOTAL OUT =         609.9805

            IN - OUT =          -0.6875              IN - OUT =      -5.0049E-03

 PERCENT DISCREPANCY =          -0.00     PERCENT DISCREPANCY =          -0.00






         TIME SUMMARY AT END OF TIME STEP   99 IN STRESS PERIOD    3
                    SECONDS     MINUTES      HOURS       DAYS        YEARS
                    -----------------------------------------------------------
   TIME STEP LENGTH  86400.      1440.0      24.000      1.0000     2.73785E-03
 STRESS PERIOD TIME 8.55360E+06 1.42560E+05  2376.0      99.000     0.27105    
         TOTAL TIME 1.72800E+07 2.88000E+05  4800.0      200.00     0.54757    
1

 SOLVING FOR HEAD 

 OUTPUT CONTROL FOR STRESS PERIOD    3   TIME STEP  100
    SAVE HEAD FOR ALL LAYERS
    SAVE DRAWDOWN FOR ALL LAYERS
    SAVE BUDGET
    PRINT HEAD FOR ALL LAYERS
    PRINT BUDGET
 UBDSV1 SAVING "         STORAGE" ON UNIT  53 AT TIME STEP100, STRESS PERIOD   3
 UBDSV2 SAVING "   CONSTANT HEAD" ON UNIT  53 AT TIME STEP100, STRESS PERIOD   3
 UBDSV1 SAVING "FLOW RIGHT FACE " ON UNIT  53 AT TIME STEP100, STRESS PERIOD   3
 UBDSV1 SAVING "FLOW FRONT FACE " ON UNIT  53 AT TIME STEP100, STRESS PERIOD   3
1
              HEAD IN LAYER   1 AT END OF TIME STEP 100 IN STRESS PERIOD    3
  ---------------------------------------------------------------------------

            1           2           3           4           5           6           7           8           9          10
 ........................................................................................................................
   1    9.990       8.786       7.591       6.418       5.277       4.177       3.111       2.068       1.036      1.0258E-02
   2    9.990       8.776       7.570       6.384       5.236       4.144       3.089       2.055       1.031      1.0205E-02
   3    9.990       8.759       7.530       6.314       5.139       4.072       3.046       2.033       1.021      1.0113E-02
   4    9.990       8.738       7.477       6.200       4.936       3.958       2.992       2.008       1.012      1.0021E-02
   5    9.989       8.728       7.441       6.074       4.447       3.832       2.955       1.997       1.008      9.9860E-03
   6    9.990       8.742       7.484       6.209       4.946       3.968       3.000       2.014       1.015      1.0052E-02
   7    9.990       8.766       7.544       6.332       5.160       4.092       3.064       2.045       1.028      1.0178E-02
   8    9.990       8.788       7.593       6.415       5.271       4.177       3.117       2.075       1.041      1.0309E-02
   9    9.990       8.804       7.626       6.465       5.330       4.228       3.154       2.097       1.051      1.0410E-02
  10    9.990       8.812       7.642       6.488       5.357       4.252       3.171       2.108       1.057      1.0463E-02

 HEAD WILL BE SAVED ON UNIT   51 AT END OF TIME STEP  100, STRESS PERIOD    3

 DRAWDOWN WILL BE SAVED ON UNIT   52 AT END OF TIME STEP  100, STRESS PERIOD    3
1
  VOLUMETRIC BUDGET FOR ENTIRE MODEL AT END OF TIME STEP  100, STRESS PERIOD   3
  ------------------------------------------------------------------------------

     CUMULATIVE VOLUMES      L**3       RATES FOR THIS TIME STEP      L**3/T
     ------------------                 ------------------------

           IN:                                      IN:
           ---                                      ---
             STORAGE =       25999.9004               STORAGE =       1.4046E-03
       CONSTANT HEAD =           0.0000         CONSTANT HEAD =           0.0000
               WELLS =           0.0000                 WELLS =           0.0000
     HEAD DEP BOUNDS =      108491.0078       HEAD DEP BOUNDS =         609.9739

            TOTAL IN =      134490.9062              TOTAL IN =         609.9753

          OUT:                                     OUT:
          ----                                     ----
             STORAGE =           0.0000               STORAGE =           0.0000
       CONSTANT HEAD =           0.0000         CONSTANT HEAD =           0.0000
               WELLS =       10000.0000                 WELLS =         100.0000
     HEAD DEP BOUNDS =      124491.5938       HEAD DEP BOUNDS =         509.9804

           TOTAL OUT =      134491.5938             TOTAL OUT =         609.9804

            IN - OUT =          -0.6875              IN - OUT =      -5.0659E-03

 PERCENT DISCREPANCY =          -0.00     PERCENT DISCREPANCY =          -0.00






         TIME SUMMARY AT END OF TIME STEP  100 IN STRESS PERIOD    3
                    SECONDS     MINUTES      HOURS       DAYS        YEARS
                    -----------------------------------------------------------
   TIME STEP LENGTH  86400.      1440.0      24.000      1.0000     2.73785E-03
 STRESS PERIOD TIME 8.64000E+06 1.44000E+05  2400.0      100.00     0.27379    
         TOTAL TIME 1.73664E+07 2.89440E+05  4824.0      201.00     0.55031    
1

 Run end date and time (yyyy/mm/dd hh:mm:ss): 2015/03/11  9:41:45
 Elapsed run time:  0.077 Seconds

