                                  MODFLOW-2005     
      U.S. GEOLOGICAL SURVEY MODULAR FINITE-DIFFERENCE GROUND-WATER FLOW MODEL
                            VERSION 1.11.00 8/8/2013

 LIST FILE: tutorial2.list
                         UNIT    2

 OPENING tutorial2.dis
 FILE TYPE:DIS   UNIT   11   STATUS:OLD    
 FORMAT:FORMATTED              ACCESS:SEQUENTIAL          

 OPENING tutorial2.bas
 FILE TYPE:BAS6   UNIT   13   STATUS:OLD    
 FORMAT:FORMATTED              ACCESS:SEQUENTIAL          

 OPENING tutorial2.lpf
 FILE TYPE:LPF   UNIT   15   STATUS:OLD    
 FORMAT:FORMATTED              ACCESS:SEQUENTIAL          

 OPENING tutorial2.sip
 FILE TYPE:SIP   UNIT   25   STATUS:OLD    
 FORMAT:FORMATTED              ACCESS:SEQUENTIAL          

 OPENING tutorial2.ghb
 FILE TYPE:GHB   UNIT   23   STATUS:OLD    
 FORMAT:FORMATTED              ACCESS:SEQUENTIAL          

 OPENING tutorial2.wel
 FILE TYPE:WEL   UNIT   20   STATUS:OLD    
 FORMAT:FORMATTED              ACCESS:SEQUENTIAL          

 OPENING tutorial2.oc
 FILE TYPE:OC   UNIT   14   STATUS:OLD    
 FORMAT:FORMATTED              ACCESS:SEQUENTIAL          

 OPENING tutorial2.hds
 FILE TYPE:DATA(BINARY)   UNIT   51   STATUS:REPLACE
 FORMAT:UNFORMATTED            ACCESS:STREAM              

 OPENING tutorial2.ddn
 FILE TYPE:DATA(BINARY)   UNIT   52   STATUS:REPLACE
 FORMAT:UNFORMATTED            ACCESS:STREAM              

 OPENING tutorial2.cbc
 FILE TYPE:DATA(BINARY)   UNIT   53   STATUS:REPLACE
 FORMAT:UNFORMATTED            ACCESS:STREAM              

 BAS -- BASIC PACKAGE, VERSION 7, 5/2/2005 INPUT READ FROM UNIT   13

 MODFLOW was compiled using mixed precision
 Precision of REAL variables:           6
 Precision of DOUBLE PRECISION variables:          15

 DISCRETIZATION INPUT DATA READ FROM UNIT   11
 # Discretization file for MODFLOW, generated by Flopy.
    1 LAYERS        10 ROWS        10 COLUMNS
    3 STRESS PERIOD(S) IN SIMULATION
 MODEL TIME UNIT IS DAYS
 MODEL LENGTH UNIT IS METERS
  Confining bed flag for each layer:
   0

                     DELR =   100.000    

                     DELC =   100.000    

 TOP ELEVATION OF LAYER 1 =   0.00000    

   MODEL LAYER BOTTOM EL. =  -50.0000     FOR LAYER   1


 STRESS PERIOD     LENGTH       TIME STEPS     MULTIPLIER FOR DELT    SS FLAG
 ----------------------------------------------------------------------------
        1         1.000000          1                    1.000         SS
        2         100.0000        100                    1.000         TR
        3         100.0000        100                    1.000         TR

 COMBINED STEADY-STATE AND TRANSIENT SIMULATION




 # Basic package file for MODFLOW, generated by Flopy.                           
 THE FREE FORMAT OPTION HAS BEEN SELECTED



                     BOUNDARY ARRAY FOR LAYER   1
 READING ON UNIT   13 WITH FORMAT: (10I10)             

 AQUIFER HEAD WILL BE SET TO  -999.99     AT ALL NO-FLOW NODES (IBOUND=0).



                       INITIAL HEAD FOR LAYER   1
 READING ON UNIT   13 WITH FORMAT: (10G15.6)           
 # Output control package file for MODFLOW, generated by Flopy.

 OUTPUT CONTROL IS SPECIFIED ONLY AT TIME STEPS FOR WHICH OUTPUT IS DESIRED
 COMPACT CELL-BY-CELL BUDGET FILES WILL BE WRITTEN
 HEAD PRINT FORMAT CODE IS   0    DRAWDOWN PRINT FORMAT CODE IS   0
 HEADS WILL BE SAVED ON UNIT   51    DRAWDOWNS WILL BE SAVED ON UNIT   52

 LPF -- LAYER-PROPERTY FLOW PACKAGE, VERSION 7, 5/2/2005
         INPUT READ FROM UNIT   15
 # LPF for MODFLOW, generated by Flopy.
 CELL-BY-CELL FLOWS WILL BE SAVED ON UNIT   53
 HEAD AT CELLS THAT CONVERT TO DRY= -1.00000E+30
 No named parameters

   LAYER FLAGS:
 LAYER       LAYTYP        LAYAVG         CHANI        LAYVKA        LAYWET
 ---------------------------------------------------------------------------
    1             1             0     1.000E+00             0             0

   INTERPRETATION OF LAYER FLAGS:
                        INTERBLOCK     HORIZONTAL    DATA IN
         LAYER TYPE   TRANSMISSIVITY   ANISOTROPY   ARRAY VKA   WETTABILITY
 LAYER      (LAYTYP)      (LAYAVG)       (CHANI)      (LAYVKA)      (LAYWET)
 ---------------------------------------------------------------------------
    1   CONVERTIBLE      HARMONIC     1.000E+00    VERTICAL K  NON-WETTABLE

 WETTING CAPABILITY IS NOT ACTIVE IN ANY LAYER

    HYD. COND. ALONG ROWS =   1.00000     FOR LAYER   1

      VERTICAL HYD. COND. =   1.00000     FOR LAYER   1

         SPECIFIC STORAGE =  1.000000E-04 FOR LAYER   1

           SPECIFIC YIELD =  0.100000     FOR LAYER   1

 WEL -- WELL PACKAGE, VERSION 7, 5/2/2005 INPUT READ FROM UNIT   20
 # Well file for MODFLOW, generated by Flopy.
 No named parameters
 MAXIMUM OF      1 ACTIVE WELLS AT ONE TIME


     0 Well parameters

 GHB -- GENERAL-HEAD BOUNDARY PACKAGE, VERSION 7, 5/2/2005
         INPUT READ FROM UNIT   23
 # GHB for MODFLOW, generated by Flopy.
 No named parameters
 MAXIMUM OF     20 ACTIVE GHB CELLS AT ONE TIME


     0 GHB parameters

 SIP -- STRONGLY-IMPLICIT PROCEDURE SOLUTION PACKAGE
                    VERSION 7, 5/2/2005 INPUT READ FROM UNIT   25
 MAXIMUM OF 100 ITERATIONS ALLOWED FOR CLOSURE
  5 ITERATION PARAMETERS

          SOLUTION BY THE STRONGLY IMPLICIT PROCEDURE
          -------------------------------------------
 MAXIMUM ITERATIONS ALLOWED FOR CLOSURE =      100
                 ACCELERATION PARAMETER =     1.0000    
      HEAD CHANGE CRITERION FOR CLOSURE =    0.10000E-02
      SIP HEAD CHANGE PRINTOUT INTERVAL =      999

     CALCULATE ITERATION PARAMETERS FROM MODEL CALCULATED WSEED
1
                            STRESS PERIOD NO.    1, LENGTH =   1.000000    
                            -----------------------------------------------

                              NUMBER OF TIME STEPS =     1

                               MULTIPLIER FOR DELT =     1.000

                            INITIAL TIME STEP SIZE =   1.000000    

 WELL NO.  LAYER   ROW   COL   STRESS RATE         
 --------------------------------------------------
      1      1      5      5       0.000    

      1 WELL 

 BOUND. NO. LAYER   ROW   COL     STAGE      CONDUCTANCE         
 ----------------------------------------------------------------
      1      1      1      1       10.00           6000.    
      2      1      1     10       10.00           6000.    
      3      1      2      1       10.00           6000.    
      4      1      2     10       10.00           6000.    
      5      1      3      1       10.00           6000.    
      6      1      3     10       10.00           6000.    
      7      1      4      1       10.00           6000.    
      8      1      4     10       10.00           6000.    
      9      1      5      1       10.00           6000.    
     10      1      5     10       10.00           6000.    
     11      1      6      1       10.00           6000.    
     12      1      6     10       10.00           6000.    
     13      1      7      1       10.00           6000.    
     14      1      7     10       10.00           6000.    
     15      1      8      1       10.00           6000.    
     16      1      8     10       10.00           6000.    
     17      1      9      1       10.00           6000.    
     18      1      9     10       10.00           6000.    
     19      1     10      1       10.00           6000.    
     20      1     10     10       10.00           6000.    

     20 GHB CELLS

 SOLVING FOR HEAD 

 AVERAGE SEED = 0.02467401
 MINIMUM SEED = 0.02467401

     5 ITERATION PARAMETERS CALCULATED FROM AVERAGE SEED:

  0.000000E+00 0.603667E+00 0.842920E+00 0.937744E+00 0.975326E+00

     1 ITERATIONS FOR TIME STEP   1 IN STRESS PERIOD    1

 MAXIMUM HEAD CHANGE FOR EACH ITERATION:

    HEAD CHANGE   HEAD CHANGE   HEAD CHANGE   HEAD CHANGE   HEAD CHANGE
  LAYER,ROW,COL LAYER,ROW,COL LAYER,ROW,COL LAYER,ROW,COL LAYER,ROW,COL
 ----------------------------------------------------------------------
      0.000    
  (  0,  0,  0)


 OUTPUT CONTROL FOR STRESS PERIOD    1   TIME STEP    1
    SAVE HEAD FOR ALL LAYERS
    SAVE DRAWDOWN FOR ALL LAYERS
    SAVE BUDGET
    PRINT HEAD FOR ALL LAYERS
    PRINT BUDGET
 UBDSV2 SAVING "   CONSTANT HEAD" ON UNIT  53 AT TIME STEP  1, STRESS PERIOD   1
 UBDSV1 SAVING "FLOW RIGHT FACE " ON UNIT  53 AT TIME STEP  1, STRESS PERIOD   1
 UBDSV1 SAVING "FLOW FRONT FACE " ON UNIT  53 AT TIME STEP  1, STRESS PERIOD   1
1
              HEAD IN LAYER   1 AT END OF TIME STEP   1 IN STRESS PERIOD    1
  ---------------------------------------------------------------------------

            1           2           3           4           5           6           7           8           9          10
 ........................................................................................................................
   1    10.00       10.00       10.00       10.00       10.00       10.00       10.00       10.00       10.00       10.00    
   2    10.00       10.00       10.00       10.00       10.00       10.00       10.00       10.00       10.00       10.00    
   3    10.00       10.00       10.00       10.00       10.00       10.00       10.00       10.00       10.00       10.00    
   4    10.00       10.00       10.00       10.00       10.00       10.00       10.00       10.00       10.00       10.00    
   5    10.00       10.00       10.00       10.00       10.00       10.00       10.00       10.00       10.00       10.00    
   6    10.00       10.00       10.00       10.00       10.00       10.00       10.00       10.00       10.00       10.00    
   7    10.00       10.00       10.00       10.00       10.00       10.00       10.00       10.00       10.00       10.00    
   8    10.00       10.00       10.00       10.00       10.00       10.00       10.00       10.00       10.00       10.00    
   9    10.00       10.00       10.00       10.00       10.00       10.00       10.00       10.00       10.00       10.00    
  10    10.00       10.00       10.00       10.00       10.00       10.00       10.00       10.00       10.00       10.00    

 HEAD WILL BE SAVED ON UNIT   51 AT END OF TIME STEP    1, STRESS PERIOD    1

 DRAWDOWN WILL BE SAVED ON UNIT   52 AT END OF TIME STEP    1, STRESS PERIOD    1
1
  VOLUMETRIC BUDGET FOR ENTIRE MODEL AT END OF TIME STEP    1, STRESS PERIOD   1
  ------------------------------------------------------------------------------

     CUMULATIVE VOLUMES      L**3       RATES FOR THIS TIME STEP      L**3/T
     ------------------                 ------------------------

           IN:                                      IN:
           ---                                      ---
             STORAGE =           0.0000               STORAGE =           0.0000
       CONSTANT HEAD =           0.0000         CONSTANT HEAD =           0.0000
               WELLS =           0.0000                 WELLS =           0.0000
     HEAD DEP BOUNDS =           0.0000       HEAD DEP BOUNDS =           0.0000

            TOTAL IN =           0.0000              TOTAL IN =           0.0000

          OUT:                                     OUT:
          ----                                     ----
             STORAGE =           0.0000               STORAGE =           0.0000
       CONSTANT HEAD =           0.0000         CONSTANT HEAD =           0.0000
               WELLS =           0.0000                 WELLS =           0.0000
     HEAD DEP BOUNDS =           0.0000       HEAD DEP BOUNDS =           0.0000

           TOTAL OUT =           0.0000             TOTAL OUT =           0.0000

            IN - OUT =           0.0000              IN - OUT =           0.0000

 PERCENT DISCREPANCY =           0.00     PERCENT DISCREPANCY =           0.00






         TIME SUMMARY AT END OF TIME STEP    1 IN STRESS PERIOD    1
                    SECONDS     MINUTES      HOURS       DAYS        YEARS
                    -----------------------------------------------------------
   TIME STEP LENGTH  86400.      1440.0      24.000      1.0000     2.73785E-03
 STRESS PERIOD TIME  86400.      1440.0      24.000      1.0000     2.73785E-03
         TOTAL TIME  86400.      1440.0      24.000      1.0000     2.73785E-03
1
1
                            STRESS PERIOD NO.    2, LENGTH =   100.0000    
                            -----------------------------------------------

                              NUMBER OF TIME STEPS =   100

                               MULTIPLIER FOR DELT =     1.000

                            INITIAL TIME STEP SIZE =   1.000000    

 WELL NO.  LAYER   ROW   COL   STRESS RATE         
 --------------------------------------------------
      1      1      5      5       0.000    

      1 WELL 

 BOUND. NO. LAYER   ROW   COL     STAGE      CONDUCTANCE         
 ----------------------------------------------------------------
      1      1      1      1       10.00           6000.    
      2      1      1     10       0.000           5000.    
      3      1      2      1       10.00           6000.    
      4      1      2     10       0.000           5000.    
      5      1      3      1       10.00           6000.    
      6      1      3     10       0.000           5000.    
      7      1      4      1       10.00           6000.    
      8      1      4     10       0.000           5000.    
      9      1      5      1       10.00           6000.    
     10      1      5     10       0.000           5000.    
     11      1      6      1       10.00           6000.    
     12      1      6     10       0.000           5000.    
     13      1      7      1       10.00           6000.    
     14      1      7     10       0.000           5000.    
     15      1      8      1       10.00           6000.    
     16      1      8     10       0.000           5000.    
     17      1      9      1       10.00           6000.    
     18      1      9     10       0.000           5000.    
     19      1     10      1       10.00           6000.    
     20      1     10     10       0.000           5000.    

     20 GHB CELLS

 SOLVING FOR HEAD 

     5 ITERATIONS FOR TIME STEP   1 IN STRESS PERIOD    2

 OUTPUT CONTROL FOR STRESS PERIOD    2   TIME STEP    1
    SAVE HEAD FOR ALL LAYERS
    SAVE DRAWDOWN FOR ALL LAYERS
    SAVE BUDGET
    PRINT HEAD FOR ALL LAYERS
    PRINT BUDGET
 UBDSV1 SAVING "         STORAGE" ON UNIT  53 AT TIME STEP  1, STRESS PERIOD   2
 UBDSV2 SAVING "   CONSTANT HEAD" ON UNIT  53 AT TIME STEP  1, STRESS PERIOD   2
 UBDSV1 SAVING "FLOW RIGHT FACE " ON UNIT  53 AT TIME STEP  1, STRESS PERIOD   2
 UBDSV1 SAVING "FLOW FRONT FACE " ON UNIT  53 AT TIME STEP  1, STRESS PERIOD   2
1
              HEAD IN LAYER   1 AT END OF TIME STEP   1 IN STRESS PERIOD    2
  ---------------------------------------------------------------------------

            1           2           3           4           5           6           7           8           9          10
 ........................................................................................................................
   1    10.00       9.996       9.989       9.970       9.920       9.791       9.452       8.564       6.241      0.1592    
   2    10.00       9.996       9.989       9.970       9.920       9.791       9.452       8.564       6.241      0.1592    
   3    10.00       9.996       9.989       9.970       9.920       9.791       9.452       8.564       6.241      0.1592    
   4    10.00       9.996       9.989       9.970       9.920       9.791       9.452       8.564       6.241      0.1592    
   5    10.00       9.996       9.989       9.970       9.920       9.791       9.452       8.564       6.241      0.1592    
   6    10.00       9.996       9.989       9.970       9.920       9.791       9.452       8.564       6.241      0.1592    
   7    10.00       9.996       9.989       9.970       9.920       9.791       9.452       8.564       6.241      0.1592    
   8    10.00       9.996       9.989       9.970       9.920       9.791       9.452       8.564       6.241      0.1592    
   9    10.00       9.996       9.989       9.970       9.920       9.791       9.452       8.564       6.241      0.1592    
  10    10.00       9.996       9.989       9.970       9.920       9.791       9.452       8.564       6.241      0.1592    

 HEAD WILL BE SAVED ON UNIT   51 AT END OF TIME STEP    1, STRESS PERIOD    2

 DRAWDOWN WILL BE SAVED ON UNIT   52 AT END OF TIME STEP    1, STRESS PERIOD    2
1
  VOLUMETRIC BUDGET FOR ENTIRE MODEL AT END OF TIME STEP    1, STRESS PERIOD   2
  ------------------------------------------------------------------------------

     CUMULATIVE VOLUMES      L**3       RATES FOR THIS TIME STEP      L**3/T
     ------------------                 ------------------------

           IN:                                      IN:
           ---                                      ---
             STORAGE =        7959.4766               STORAGE =        7959.4766
       CONSTANT HEAD =           0.0000         CONSTANT HEAD =           0.0000
               WELLS =           0.0000                 WELLS =           0.0000
     HEAD DEP BOUNDS =           1.8782       HEAD DEP BOUNDS =           1.8782

            TOTAL IN =        7961.3550              TOTAL IN =        7961.3550

          OUT:                                     OUT:
          ----                                     ----
             STORAGE =           0.0000               STORAGE =           0.0000
       CONSTANT HEAD =           0.0000         CONSTANT HEAD =           0.0000
               WELLS =           0.0000                 WELLS =           0.0000
     HEAD DEP BOUNDS =        7961.3579       HEAD DEP BOUNDS =        7961.3579

           TOTAL OUT =        7961.3579             TOTAL OUT =        7961.3579

            IN - OUT =      -2.9297E-03              IN - OUT =      -2.9297E-03

 PERCENT DISCREPANCY =          -0.00     PERCENT DISCREPANCY =          -0.00






         TIME SUMMARY AT END OF TIME STEP    1 IN STRESS PERIOD    2
                    SECONDS     MINUTES      HOURS       DAYS        YEARS
                    -----------------------------------------------------------
   TIME STEP LENGTH  86400.      1440.0      24.000      1.0000     2.73785E-03
 STRESS PERIOD TIME  86400.      1440.0      24.000      1.0000     2.73785E-03
         TOTAL TIME 1.72800E+05  2880.0      48.000      2.0000     5.47570E-03
1

 SOLVING FOR HEAD 
     5 ITERATIONS FOR TIME STEP   2 IN STRESS PERIOD    2

 OUTPUT CONTROL FOR STRESS PERIOD    2   TIME STEP    2
    SAVE HEAD FOR ALL LAYERS
    SAVE DRAWDOWN FOR ALL LAYERS
    SAVE BUDGET
    PRINT HEAD FOR ALL LAYERS
    PRINT BUDGET
 UBDSV1 SAVING "         STORAGE" ON UNIT  53 AT TIME STEP  2, STRESS PERIOD   2
 UBDSV2 SAVING "   CONSTANT HEAD" ON UNIT  53 AT TIME STEP  2, STRESS PERIOD   2
 UBDSV1 SAVING "FLOW RIGHT FACE " ON UNIT  53 AT TIME STEP  2, STRESS PERIOD   2
 UBDSV1 SAVING "FLOW FRONT FACE " ON UNIT  53 AT TIME STEP  2, STRESS PERIOD   2
1
              HEAD IN LAYER   1 AT END OF TIME STEP   2 IN STRESS PERIOD    2
  ---------------------------------------------------------------------------

            1           2           3           4           5           6           7           8           9          10
 ........................................................................................................................
   1    10.00       9.983       9.953       9.888       9.740       9.413       8.710       7.264       4.517      4.5844E-02
   2    10.00       9.983       9.953       9.888       9.740       9.413       8.710       7.264       4.517      4.5844E-02
   3    10.00       9.983       9.953       9.888       9.740       9.413       8.710       7.264       4.517      4.5844E-02
   4    10.00       9.983       9.953       9.888       9.740       9.413       8.710       7.264       4.517      4.5844E-02
   5    10.00       9.983       9.953       9.888       9.740       9.413       8.710       7.264       4.517      4.5844E-02
   6    10.00       9.983       9.953       9.888       9.740       9.413       8.710       7.264       4.517      4.5844E-02
   7    10.00       9.983       9.953       9.888       9.740       9.413       8.710       7.264       4.517      4.5844E-02
   8    10.00       9.983       9.953       9.888       9.740       9.413       8.710       7.264       4.517      4.5844E-02
   9    10.00       9.983       9.953       9.888       9.740       9.413       8.710       7.264       4.517      4.5844E-02
  10    10.00       9.983       9.953       9.888       9.740       9.413       8.710       7.264       4.517      4.5844E-02

 HEAD WILL BE SAVED ON UNIT   51 AT END OF TIME STEP    2, STRESS PERIOD    2

 DRAWDOWN WILL BE SAVED ON UNIT   52 AT END OF TIME STEP    2, STRESS PERIOD    2
1
  VOLUMETRIC BUDGET FOR ENTIRE MODEL AT END OF TIME STEP    2, STRESS PERIOD   2
  ------------------------------------------------------------------------------

     CUMULATIVE VOLUMES      L**3       RATES FOR THIS TIME STEP      L**3/T
     ------------------                 ------------------------

           IN:                                      IN:
           ---                                      ---
             STORAGE =       10243.3174               STORAGE =        2283.8411
       CONSTANT HEAD =           0.0000         CONSTANT HEAD =           0.0000
               WELLS =           0.0000                 WELLS =           0.0000
     HEAD DEP BOUNDS =          10.2154       HEAD DEP BOUNDS =           8.3372

            TOTAL IN =       10253.5332              TOTAL IN =        2292.1782

          OUT:                                     OUT:
          ----                                     ----
             STORAGE =           0.0000               STORAGE =           0.0000
       CONSTANT HEAD =           0.0000         CONSTANT HEAD =           0.0000
               WELLS =           0.0000                 WELLS =           0.0000
     HEAD DEP BOUNDS =       10253.5527       HEAD DEP BOUNDS =        2292.1953

           TOTAL OUT =       10253.5527             TOTAL OUT =        2292.1953

            IN - OUT =      -1.9531E-02              IN - OUT =      -1.7090E-02

 PERCENT DISCREPANCY =          -0.00     PERCENT DISCREPANCY =          -0.00






         TIME SUMMARY AT END OF TIME STEP    2 IN STRESS PERIOD    2
                    SECONDS     MINUTES      HOURS       DAYS        YEARS
                    -----------------------------------------------------------
   TIME STEP LENGTH  86400.      1440.0      24.000      1.0000     2.73785E-03
 STRESS PERIOD TIME 1.72800E+05  2880.0      48.000      2.0000     5.47570E-03
         TOTAL TIME 2.59200E+05  4320.0      72.000      3.0000     8.21355E-03
1

 SOLVING FOR HEAD 
     5 ITERATIONS FOR TIME STEP   3 IN STRESS PERIOD    2

 OUTPUT CONTROL FOR STRESS PERIOD    2   TIME STEP    3
    SAVE HEAD FOR ALL LAYERS
    SAVE DRAWDOWN FOR ALL LAYERS
    SAVE BUDGET
    PRINT HEAD FOR ALL LAYERS
    PRINT BUDGET
 UBDSV1 SAVING "         STORAGE" ON UNIT  53 AT TIME STEP  3, STRESS PERIOD   2
 UBDSV2 SAVING "   CONSTANT HEAD" ON UNIT  53 AT TIME STEP  3, STRESS PERIOD   2
 UBDSV1 SAVING "FLOW RIGHT FACE " ON UNIT  53 AT TIME STEP  3, STRESS PERIOD   2
 UBDSV1 SAVING "FLOW FRONT FACE " ON UNIT  53 AT TIME STEP  3, STRESS PERIOD   2
1
              HEAD IN LAYER   1 AT END OF TIME STEP   3 IN STRESS PERIOD    2
  ---------------------------------------------------------------------------

            1           2           3           4           5           6           7           8           9          10
 ........................................................................................................................
   1    10.00       9.957       9.888       9.754       9.485       8.962       7.986       6.288       3.614      3.5876E-02
   2    10.00       9.957       9.888       9.754       9.485       8.962       7.986       6.288       3.614      3.5876E-02
   3    10.00       9.957       9.888       9.754       9.485       8.962       7.986       6.288       3.614      3.5876E-02
   4    10.00       9.957       9.888       9.754       9.485       8.962       7.986       6.288       3.614      3.5876E-02
   5    10.00       9.957       9.888       9.754       9.485       8.962       7.986       6.288       3.614      3.5876E-02
   6    10.00       9.957       9.888       9.754       9.485       8.962       7.986       6.288       3.614      3.5876E-02
   7    10.00       9.957       9.888       9.754       9.485       8.962       7.986       6.288       3.614      3.5876E-02
   8    10.00       9.957       9.888       9.754       9.485       8.962       7.986       6.288       3.614      3.5876E-02
   9    10.00       9.957       9.888       9.754       9.485       8.962       7.986       6.288       3.614      3.5876E-02
  10    10.00       9.957       9.888       9.754       9.485       8.962       7.986       6.288       3.614      3.5876E-02

 HEAD WILL BE SAVED ON UNIT   51 AT END OF TIME STEP    3, STRESS PERIOD    2

 DRAWDOWN WILL BE SAVED ON UNIT   52 AT END OF TIME STEP    3, STRESS PERIOD    2
1
  VOLUMETRIC BUDGET FOR ENTIRE MODEL AT END OF TIME STEP    3, STRESS PERIOD   2
  ------------------------------------------------------------------------------

     CUMULATIVE VOLUMES      L**3       RATES FOR THIS TIME STEP      L**3/T
     ------------------                 ------------------------

           IN:                                      IN:
           ---                                      ---
             STORAGE =       12015.8252               STORAGE =        1772.5082
       CONSTANT HEAD =           0.0000         CONSTANT HEAD =           0.0000
               WELLS =           0.0000                 WELLS =           0.0000
     HEAD DEP BOUNDS =          31.5159       HEAD DEP BOUNDS =          21.3005

            TOTAL IN =       12047.3408              TOTAL IN =        1793.8087

          OUT:                                     OUT:
          ----                                     ----
             STORAGE =           0.0000               STORAGE =           0.0000
       CONSTANT HEAD =           0.0000         CONSTANT HEAD =           0.0000
               WELLS =           0.0000                 WELLS =           0.0000
     HEAD DEP BOUNDS =       12047.3545       HEAD DEP BOUNDS =        1793.8014

           TOTAL OUT =       12047.3545             TOTAL OUT =        1793.8014

            IN - OUT =      -1.3672E-02              IN - OUT =       7.3242E-03

 PERCENT DISCREPANCY =          -0.00     PERCENT DISCREPANCY =           0.00






         TIME SUMMARY AT END OF TIME STEP    3 IN STRESS PERIOD    2
                    SECONDS     MINUTES      HOURS       DAYS        YEARS
                    -----------------------------------------------------------
   TIME STEP LENGTH  86400.      1440.0      24.000      1.0000     2.73785E-03
 STRESS PERIOD TIME 2.59200E+05  4320.0      72.000      3.0000     8.21355E-03
         TOTAL TIME 3.45600E+05  5760.0      96.000      4.0000     1.09514E-02
1

 SOLVING FOR HEAD 
     5 ITERATIONS FOR TIME STEP   4 IN STRESS PERIOD    2

 OUTPUT CONTROL FOR STRESS PERIOD    2   TIME STEP    4
    SAVE HEAD FOR ALL LAYERS
    SAVE DRAWDOWN FOR ALL LAYERS
    SAVE BUDGET
    PRINT HEAD FOR ALL LAYERS
    PRINT BUDGET
 UBDSV1 SAVING "         STORAGE" ON UNIT  53 AT TIME STEP  4, STRESS PERIOD   2
 UBDSV2 SAVING "   CONSTANT HEAD" ON UNIT  53 AT TIME STEP  4, STRESS PERIOD   2
 UBDSV1 SAVING "FLOW RIGHT FACE " ON UNIT  53 AT TIME STEP  4, STRESS PERIOD   2
 UBDSV1 SAVING "FLOW FRONT FACE " ON UNIT  53 AT TIME STEP  4, STRESS PERIOD   2
1
              HEAD IN LAYER   1 AT END OF TIME STEP   4 IN STRESS PERIOD    2
  ---------------------------------------------------------------------------

            1           2           3           4           5           6           7           8           9          10
 ........................................................................................................................
   1    9.999       9.917       9.795       9.579       9.188       8.501       7.353       5.571       3.072      3.0465E-02
   2    9.999       9.917       9.795       9.579       9.188       8.501       7.353       5.571       3.072      3.0465E-02
   3    9.999       9.917       9.795       9.579       9.188       8.501       7.353       5.571       3.072      3.0465E-02
   4    9.999       9.917       9.795       9.579       9.188       8.501       7.353       5.571       3.072      3.0465E-02
   5    9.999       9.917       9.795       9.579       9.188       8.501       7.353       5.571       3.072      3.0465E-02
   6    9.999       9.917       9.795       9.579       9.188       8.501       7.353       5.571       3.072      3.0465E-02
   7    9.999       9.917       9.795       9.579       9.188       8.501       7.353       5.571       3.072      3.0465E-02
   8    9.999       9.917       9.795       9.579       9.188       8.501       7.353       5.571       3.072      3.0465E-02
   9    9.999       9.917       9.795       9.579       9.188       8.501       7.353       5.571       3.072      3.0465E-02
  10    9.999       9.917       9.795       9.579       9.188       8.501       7.353       5.571       3.072      3.0465E-02

 HEAD WILL BE SAVED ON UNIT   51 AT END OF TIME STEP    4, STRESS PERIOD    2

 DRAWDOWN WILL BE SAVED ON UNIT   52 AT END OF TIME STEP    4, STRESS PERIOD    2
1
  VOLUMETRIC BUDGET FOR ENTIRE MODEL AT END OF TIME STEP    4, STRESS PERIOD   2
  ------------------------------------------------------------------------------

     CUMULATIVE VOLUMES      L**3       RATES FOR THIS TIME STEP      L**3/T
     ------------------                 ------------------------

           IN:                                      IN:
           ---                                      ---
             STORAGE =       13498.0225               STORAGE =        1482.1974
       CONSTANT HEAD =           0.0000         CONSTANT HEAD =           0.0000
               WELLS =           0.0000                 WELLS =           0.0000
     HEAD DEP BOUNDS =          72.5817       HEAD DEP BOUNDS =          41.0658

            TOTAL IN =       13570.6045              TOTAL IN =        1523.2632

          OUT:                                     OUT:
          ----                                     ----
             STORAGE =           0.0000               STORAGE =           0.0000
       CONSTANT HEAD =           0.0000         CONSTANT HEAD =           0.0000
               WELLS =           0.0000                 WELLS =           0.0000
     HEAD DEP BOUNDS =       13570.6006       HEAD DEP BOUNDS =        1523.2457

           TOTAL OUT =       13570.6006             TOTAL OUT =        1523.2457

            IN - OUT =       3.9062E-03              IN - OUT =       1.7456E-02

 PERCENT DISCREPANCY =           0.00     PERCENT DISCREPANCY =           0.00






         TIME SUMMARY AT END OF TIME STEP    4 IN STRESS PERIOD    2
                    SECONDS     MINUTES      HOURS       DAYS        YEARS
                    -----------------------------------------------------------
   TIME STEP LENGTH  86400.      1440.0      24.000      1.0000     2.73785E-03
 STRESS PERIOD TIME 3.45600E+05  5760.0      96.000      4.0000     1.09514E-02
         TOTAL TIME 4.32000E+05  7200.0      120.00      5.0000     1.36893E-02
1

 SOLVING FOR HEAD 
     5 ITERATIONS FOR TIME STEP   5 IN STRESS PERIOD    2

 OUTPUT CONTROL FOR STRESS PERIOD    2   TIME STEP    5
    SAVE HEAD FOR ALL LAYERS
    SAVE DRAWDOWN FOR ALL LAYERS
    SAVE BUDGET
    PRINT HEAD FOR ALL LAYERS
    PRINT BUDGET
 UBDSV1 SAVING "         STORAGE" ON UNIT  53 AT TIME STEP  5, STRESS PERIOD   2
 UBDSV2 SAVING "   CONSTANT HEAD" ON UNIT  53 AT TIME STEP  5, STRESS PERIOD   2
 UBDSV1 SAVING "FLOW RIGHT FACE " ON UNIT  53 AT TIME STEP  5, STRESS PERIOD   2
 UBDSV1 SAVING "FLOW FRONT FACE " ON UNIT  53 AT TIME STEP  5, STRESS PERIOD   2
1
              HEAD IN LAYER   1 AT END OF TIME STEP   5 IN STRESS PERIOD    2
  ---------------------------------------------------------------------------

            1           2           3           4           5           6           7           8           9          10
 ........................................................................................................................
   1    9.999       9.865       9.679       9.378       8.877       8.065       6.817       5.033       2.710      2.6871E-02
   2    9.999       9.865       9.679       9.378       8.877       8.065       6.817       5.033       2.710      2.6871E-02
   3    9.999       9.865       9.679       9.378       8.877       8.065       6.817       5.033       2.710      2.6871E-02
   4    9.999       9.865       9.679       9.378       8.877       8.065       6.817       5.033       2.710      2.6871E-02
   5    9.999       9.865       9.679       9.378       8.877       8.065       6.817       5.033       2.710      2.6871E-02
   6    9.999       9.865       9.679       9.378       8.877       8.065       6.817       5.033       2.710      2.6871E-02
   7    9.999       9.865       9.679       9.378       8.877       8.065       6.817       5.033       2.710      2.6871E-02
   8    9.999       9.865       9.679       9.378       8.877       8.065       6.817       5.033       2.710      2.6871E-02
   9    9.999       9.865       9.679       9.378       8.877       8.065       6.817       5.033       2.710      2.6870E-02
  10    9.999       9.865       9.679       9.378       8.877       8.065       6.817       5.033       2.710      2.6870E-02

 HEAD WILL BE SAVED ON UNIT   51 AT END OF TIME STEP    5, STRESS PERIOD    2

 DRAWDOWN WILL BE SAVED ON UNIT   52 AT END OF TIME STEP    5, STRESS PERIOD    2
1
  VOLUMETRIC BUDGET FOR ENTIRE MODEL AT END OF TIME STEP    5, STRESS PERIOD   2
  ------------------------------------------------------------------------------

     CUMULATIVE VOLUMES      L**3       RATES FOR THIS TIME STEP      L**3/T
     ------------------                 ------------------------

           IN:                                      IN:
           ---                                      ---
             STORAGE =       14774.8359               STORAGE =        1276.8130
       CONSTANT HEAD =           0.0000         CONSTANT HEAD =           0.0000
               WELLS =           0.0000                 WELLS =           0.0000
     HEAD DEP BOUNDS =         139.3027       HEAD DEP BOUNDS =          66.7210

            TOTAL IN =       14914.1387              TOTAL IN =        1343.5341

          OUT:                                     OUT:
          ----                                     ----
             STORAGE =           0.0000               STORAGE =           0.0000
       CONSTANT HEAD =           0.0000         CONSTANT HEAD =           0.0000
               WELLS =           0.0000                 WELLS =           0.0000
     HEAD DEP BOUNDS =       14914.1260       HEAD DEP BOUNDS =        1343.5256

           TOTAL OUT =       14914.1260             TOTAL OUT =        1343.5256

            IN - OUT =       1.2695E-02              IN - OUT =       8.4229E-03

 PERCENT DISCREPANCY =           0.00     PERCENT DISCREPANCY =           0.00






         TIME SUMMARY AT END OF TIME STEP    5 IN STRESS PERIOD    2
                    SECONDS     MINUTES      HOURS       DAYS        YEARS
                    -----------------------------------------------------------
   TIME STEP LENGTH  86400.      1440.0      24.000      1.0000     2.73785E-03
 STRESS PERIOD TIME 4.32000E+05  7200.0      120.00      5.0000     1.36893E-02
         TOTAL TIME 5.18400E+05  8640.0      144.00      6.0000     1.64271E-02
1

 SOLVING FOR HEAD 
     5 ITERATIONS FOR TIME STEP   6 IN STRESS PERIOD    2

 OUTPUT CONTROL FOR STRESS PERIOD    2   TIME STEP    6
    SAVE HEAD FOR ALL LAYERS
    SAVE DRAWDOWN FOR ALL LAYERS
    SAVE BUDGET
    PRINT HEAD FOR ALL LAYERS
    PRINT BUDGET
 UBDSV1 SAVING "         STORAGE" ON UNIT  53 AT TIME STEP  6, STRESS PERIOD   2
 UBDSV2 SAVING "   CONSTANT HEAD" ON UNIT  53 AT TIME STEP  6, STRESS PERIOD   2
 UBDSV1 SAVING "FLOW RIGHT FACE " ON UNIT  53 AT TIME STEP  6, STRESS PERIOD   2
 UBDSV1 SAVING "FLOW FRONT FACE " ON UNIT  53 AT TIME STEP  6, STRESS PERIOD   2
1
              HEAD IN LAYER   1 AT END OF TIME STEP   6 IN STRESS PERIOD    2
  ---------------------------------------------------------------------------

            1           2           3           4           5           6           7           8           9          10
 ........................................................................................................................
   1    9.998       9.804       9.550       9.166       8.570       7.667       6.367       4.617       2.450      2.4287E-02
   2    9.998       9.804       9.550       9.166       8.570       7.667       6.367       4.617       2.450      2.4287E-02
   3    9.998       9.804       9.550       9.166       8.570       7.667       6.367       4.617       2.450      2.4287E-02
   4    9.998       9.804       9.550       9.166       8.570       7.667       6.367       4.617       2.450      2.4287E-02
   5    9.998       9.804       9.550       9.166       8.570       7.667       6.367       4.617       2.450      2.4287E-02
   6    9.998       9.804       9.550       9.166       8.570       7.667       6.367       4.617       2.450      2.4287E-02
   7    9.998       9.804       9.550       9.166       8.570       7.667       6.367       4.617       2.450      2.4287E-02
   8    9.998       9.804       9.550       9.166       8.570       7.667       6.367       4.617       2.450      2.4287E-02
   9    9.998       9.804       9.550       9.166       8.570       7.667       6.367       4.617       2.450      2.4287E-02
  10    9.998       9.804       9.550       9.166       8.570       7.667       6.367       4.617       2.450      2.4287E-02

 HEAD WILL BE SAVED ON UNIT   51 AT END OF TIME STEP    6, STRESS PERIOD    2

 DRAWDOWN WILL BE SAVED ON UNIT   52 AT END OF TIME STEP    6, STRESS PERIOD    2
1
  VOLUMETRIC BUDGET FOR ENTIRE MODEL AT END OF TIME STEP    6, STRESS PERIOD   2
  ------------------------------------------------------------------------------

     CUMULATIVE VOLUMES      L**3       RATES FOR THIS TIME STEP      L**3/T
     ------------------                 ------------------------

           IN:                                      IN:
           ---                                      ---
             STORAGE =       15892.4873               STORAGE =        1117.6516
       CONSTANT HEAD =           0.0000         CONSTANT HEAD =           0.0000
               WELLS =           0.0000                 WELLS =           0.0000
     HEAD DEP BOUNDS =         235.9966       HEAD DEP BOUNDS =          96.6939

            TOTAL IN =       16128.4844              TOTAL IN =        1214.3455

          OUT:                                     OUT:
          ----                                     ----
             STORAGE =           0.0000               STORAGE =           0.0000
       CONSTANT HEAD =           0.0000         CONSTANT HEAD =           0.0000
               WELLS =           0.0000                 WELLS =           0.0000
     HEAD DEP BOUNDS =       16128.4814       HEAD DEP BOUNDS =        1214.3553

           TOTAL OUT =       16128.4814             TOTAL OUT =        1214.3553

            IN - OUT =       2.9297E-03              IN - OUT =      -9.8877E-03

 PERCENT DISCREPANCY =           0.00     PERCENT DISCREPANCY =          -0.00






         TIME SUMMARY AT END OF TIME STEP    6 IN STRESS PERIOD    2
                    SECONDS     MINUTES      HOURS       DAYS        YEARS
                    -----------------------------------------------------------
   TIME STEP LENGTH  86400.      1440.0      24.000      1.0000     2.73785E-03
 STRESS PERIOD TIME 5.18400E+05  8640.0      144.00      6.0000     1.64271E-02
         TOTAL TIME 6.04800E+05  10080.      168.00      7.0000     1.91650E-02
1

 SOLVING FOR HEAD 
     5 ITERATIONS FOR TIME STEP   7 IN STRESS PERIOD    2

 OUTPUT CONTROL FOR STRESS PERIOD    2   TIME STEP    7
    SAVE HEAD FOR ALL LAYERS
    SAVE DRAWDOWN FOR ALL LAYERS
    SAVE BUDGET
    PRINT HEAD FOR ALL LAYERS
    PRINT BUDGET
 UBDSV1 SAVING "         STORAGE" ON UNIT  53 AT TIME STEP  7, STRESS PERIOD   2
 UBDSV2 SAVING "   CONSTANT HEAD" ON UNIT  53 AT TIME STEP  7, STRESS PERIOD   2
 UBDSV1 SAVING "FLOW RIGHT FACE " ON UNIT  53 AT TIME STEP  7, STRESS PERIOD   2
 UBDSV1 SAVING "FLOW FRONT FACE " ON UNIT  53 AT TIME STEP  7, STRESS PERIOD   2
1
              HEAD IN LAYER   1 AT END OF TIME STEP   7 IN STRESS PERIOD    2
  ---------------------------------------------------------------------------

            1           2           3           4           5           6           7           8           9          10
 ........................................................................................................................
   1    9.998       9.739       9.414       8.953       8.278       7.311       5.988       4.286       2.253      2.2325E-02
   2    9.998       9.739       9.414       8.953       8.278       7.311       5.988       4.286       2.253      2.2325E-02
   3    9.998       9.739       9.414       8.953       8.278       7.311       5.988       4.286       2.253      2.2325E-02
   4    9.998       9.739       9.414       8.953       8.278       7.311       5.988       4.286       2.253      2.2325E-02
   5    9.998       9.739       9.414       8.953       8.278       7.311       5.988       4.286       2.253      2.2325E-02
   6    9.998       9.739       9.414       8.953       8.278       7.311       5.988       4.286       2.253      2.2325E-02
   7    9.998       9.739       9.414       8.953       8.278       7.311       5.988       4.286       2.253      2.2325E-02
   8    9.998       9.739       9.414       8.953       8.278       7.311       5.988       4.286       2.253      2.2325E-02
   9    9.998       9.739       9.414       8.953       8.278       7.311       5.988       4.286       2.253      2.2325E-02
  10    9.998       9.739       9.414       8.953       8.278       7.311       5.988       4.286       2.253      2.2325E-02

 HEAD WILL BE SAVED ON UNIT   51 AT END OF TIME STEP    7, STRESS PERIOD    2

 DRAWDOWN WILL BE SAVED ON UNIT   52 AT END OF TIME STEP    7, STRESS PERIOD    2
1
  VOLUMETRIC BUDGET FOR ENTIRE MODEL AT END OF TIME STEP    7, STRESS PERIOD   2
  ------------------------------------------------------------------------------

     CUMULATIVE VOLUMES      L**3       RATES FOR THIS TIME STEP      L**3/T
     ------------------                 ------------------------

           IN:                                      IN:
           ---                                      ---
             STORAGE =       16879.4355               STORAGE =         986.9483
       CONSTANT HEAD =           0.0000         CONSTANT HEAD =           0.0000
               WELLS =           0.0000                 WELLS =           0.0000
     HEAD DEP BOUNDS =         365.3052       HEAD DEP BOUNDS =         129.3086

            TOTAL IN =       17244.7402              TOTAL IN =        1116.2568

          OUT:                                     OUT:
          ----                                     ----
             STORAGE =           0.0000               STORAGE =           0.0000
       CONSTANT HEAD =           0.0000         CONSTANT HEAD =           0.0000
               WELLS =           0.0000                 WELLS =           0.0000
     HEAD DEP BOUNDS =       17244.7246       HEAD DEP BOUNDS =        1116.2432

           TOTAL OUT =       17244.7246             TOTAL OUT =        1116.2432

            IN - OUT =       1.5625E-02              IN - OUT =       1.3672E-02

 PERCENT DISCREPANCY =           0.00     PERCENT DISCREPANCY =           0.00






         TIME SUMMARY AT END OF TIME STEP    7 IN STRESS PERIOD    2
                    SECONDS     MINUTES      HOURS       DAYS        YEARS
                    -----------------------------------------------------------
   TIME STEP LENGTH  86400.      1440.0      24.000      1.0000     2.73785E-03
 STRESS PERIOD TIME 6.04800E+05  10080.      168.00      7.0000     1.91650E-02
         TOTAL TIME 6.91200E+05  11520.      192.00      8.0000     2.19028E-02
1

 SOLVING FOR HEAD 
     4 ITERATIONS FOR TIME STEP   8 IN STRESS PERIOD    2

 OUTPUT CONTROL FOR STRESS PERIOD    2   TIME STEP    8
    SAVE HEAD FOR ALL LAYERS
    SAVE DRAWDOWN FOR ALL LAYERS
    SAVE BUDGET
    PRINT HEAD FOR ALL LAYERS
    PRINT BUDGET
 UBDSV1 SAVING "         STORAGE" ON UNIT  53 AT TIME STEP  8, STRESS PERIOD   2
 UBDSV2 SAVING "   CONSTANT HEAD" ON UNIT  53 AT TIME STEP  8, STRESS PERIOD   2
 UBDSV1 SAVING "FLOW RIGHT FACE " ON UNIT  53 AT TIME STEP  8, STRESS PERIOD   2
 UBDSV1 SAVING "FLOW FRONT FACE " ON UNIT  53 AT TIME STEP  8, STRESS PERIOD   2
1
              HEAD IN LAYER   1 AT END OF TIME STEP   8 IN STRESS PERIOD    2
  ---------------------------------------------------------------------------

            1           2           3           4           5           6           7           8           9          10
 ........................................................................................................................
   1    9.997       9.671       9.277       8.745       8.006       6.994       5.666       4.016       2.097      2.0774E-02
   2    9.997       9.671       9.277       8.745       8.006       6.994       5.666       4.016       2.097      2.0774E-02
   3    9.997       9.671       9.277       8.745       8.006       6.994       5.666       4.016       2.097      2.0774E-02
   4    9.997       9.671       9.277       8.745       8.006       6.994       5.666       4.016       2.097      2.0774E-02
   5    9.997       9.671       9.277       8.745       8.006       6.994       5.666       4.016       2.097      2.0774E-02
   6    9.997       9.671       9.277       8.745       8.006       6.994       5.666       4.016       2.097      2.0774E-02
   7    9.997       9.671       9.277       8.745       8.006       6.994       5.666       4.016       2.097      2.0774E-02
   8    9.997       9.671       9.277       8.745       8.006       6.994       5.666       4.016       2.097      2.0774E-02
   9    9.997       9.671       9.277       8.745       8.006       6.994       5.666       4.016       2.097      2.0774E-02
  10    9.997       9.671       9.277       8.745       8.006       6.994       5.666       4.016       2.097      2.0775E-02

 HEAD WILL BE SAVED ON UNIT   51 AT END OF TIME STEP    8, STRESS PERIOD    2

 DRAWDOWN WILL BE SAVED ON UNIT   52 AT END OF TIME STEP    8, STRESS PERIOD    2
1
  VOLUMETRIC BUDGET FOR ENTIRE MODEL AT END OF TIME STEP    8, STRESS PERIOD   2
  ------------------------------------------------------------------------------

     CUMULATIVE VOLUMES      L**3       RATES FOR THIS TIME STEP      L**3/T
     ------------------                 ------------------------

           IN:                                      IN:
           ---                                      ---
             STORAGE =       17755.1270               STORAGE =         875.6923
       CONSTANT HEAD =           0.0000         CONSTANT HEAD =           0.0000
               WELLS =           0.0000                 WELLS =           0.0000
     HEAD DEP BOUNDS =         528.2521       HEAD DEP BOUNDS =         162.9470

            TOTAL IN =       18283.3789              TOTAL IN =        1038.6393

          OUT:                                     OUT:
          ----                                     ----
             STORAGE =           0.0000               STORAGE =           0.0000
       CONSTANT HEAD =           0.0000         CONSTANT HEAD =           0.0000
               WELLS =           0.0000                 WELLS =           0.0000
     HEAD DEP BOUNDS =       18283.4336       HEAD DEP BOUNDS =        1038.7098

           TOTAL OUT =       18283.4336             TOTAL OUT =        1038.7098

            IN - OUT =      -5.4688E-02              IN - OUT =      -7.0557E-02

 PERCENT DISCREPANCY =          -0.00     PERCENT DISCREPANCY =          -0.01






         TIME SUMMARY AT END OF TIME STEP    8 IN STRESS PERIOD    2
                    SECONDS     MINUTES      HOURS       DAYS        YEARS
                    -----------------------------------------------------------
   TIME STEP LENGTH  86400.      1440.0      24.000      1.0000     2.73785E-03
 STRESS PERIOD TIME 6.91200E+05  11520.      192.00      8.0000     2.19028E-02
         TOTAL TIME 7.77600E+05  12960.      216.00      9.0000     2.46407E-02
1

 SOLVING FOR HEAD 
     4 ITERATIONS FOR TIME STEP   9 IN STRESS PERIOD    2

 OUTPUT CONTROL FOR STRESS PERIOD    2   TIME STEP    9
    SAVE HEAD FOR ALL LAYERS
    SAVE DRAWDOWN FOR ALL LAYERS
    SAVE BUDGET
    PRINT HEAD FOR ALL LAYERS
    PRINT BUDGET
 UBDSV1 SAVING "         STORAGE" ON UNIT  53 AT TIME STEP  9, STRESS PERIOD   2
 UBDSV2 SAVING "   CONSTANT HEAD" ON UNIT  53 AT TIME STEP  9, STRESS PERIOD   2
 UBDSV1 SAVING "FLOW RIGHT FACE " ON UNIT  53 AT TIME STEP  9, STRESS PERIOD   2
 UBDSV1 SAVING "FLOW FRONT FACE " ON UNIT  53 AT TIME STEP  9, STRESS PERIOD   2
1
              HEAD IN LAYER   1 AT END OF TIME STEP   9 IN STRESS PERIOD    2
  ---------------------------------------------------------------------------

            1           2           3           4           5           6           7           8           9          10
 ........................................................................................................................
   1    9.997       9.603       9.143       8.548       7.756       6.714       5.391       3.792       1.969      1.9511E-02
   2    9.997       9.603       9.143       8.548       7.756       6.714       5.391       3.792       1.969      1.9511E-02
   3    9.997       9.603       9.143       8.548       7.756       6.714       5.391       3.792       1.969      1.9512E-02
   4    9.997       9.603       9.143       8.548       7.756       6.714       5.391       3.792       1.969      1.9512E-02
   5    9.997       9.603       9.143       8.548       7.756       6.714       5.391       3.792       1.969      1.9512E-02
   6    9.997       9.603       9.143       8.548       7.756       6.714       5.391       3.792       1.969      1.9512E-02
   7    9.997       9.603       9.143       8.548       7.756       6.714       5.391       3.792       1.969      1.9512E-02
   8    9.997       9.603       9.143       8.548       7.756       6.714       5.391       3.792       1.969      1.9512E-02
   9    9.997       9.603       9.143       8.548       7.756       6.714       5.391       3.792       1.969      1.9512E-02
  10    9.997       9.603       9.143       8.548       7.756       6.714       5.391       3.792       1.969      1.9512E-02

 HEAD WILL BE SAVED ON UNIT   51 AT END OF TIME STEP    9, STRESS PERIOD    2

 DRAWDOWN WILL BE SAVED ON UNIT   52 AT END OF TIME STEP    9, STRESS PERIOD    2
1
  VOLUMETRIC BUDGET FOR ENTIRE MODEL AT END OF TIME STEP    9, STRESS PERIOD   2
  ------------------------------------------------------------------------------

     CUMULATIVE VOLUMES      L**3       RATES FOR THIS TIME STEP      L**3/T
     ------------------                 ------------------------

           IN:                                      IN:
           ---                                      ---
             STORAGE =       18534.2559               STORAGE =         779.1297
       CONSTANT HEAD =           0.0000         CONSTANT HEAD =           0.0000
               WELLS =           0.0000                 WELLS =           0.0000
     HEAD DEP BOUNDS =         724.6470       HEAD DEP BOUNDS =         196.3948

            TOTAL IN =       19258.9023              TOTAL IN =         975.5245

          OUT:                                     OUT:
          ----                                     ----
             STORAGE =           0.0000               STORAGE =           0.0000
       CONSTANT HEAD =           0.0000         CONSTANT HEAD =           0.0000
               WELLS =           0.0000                 WELLS =           0.0000
     HEAD DEP BOUNDS =       19259.0273       HEAD DEP BOUNDS =         975.5931

           TOTAL OUT =       19259.0273             TOTAL OUT =         975.5931

            IN - OUT =          -0.1250              IN - OUT =      -6.8604E-02

 PERCENT DISCREPANCY =          -0.00     PERCENT DISCREPANCY =          -0.01






         TIME SUMMARY AT END OF TIME STEP    9 IN STRESS PERIOD    2
                    SECONDS     MINUTES      HOURS       DAYS        YEARS
                    -----------------------------------------------------------
   TIME STEP LENGTH  86400.      1440.0      24.000      1.0000     2.73785E-03
 STRESS PERIOD TIME 7.77600E+05  12960.      216.00      9.0000     2.46407E-02
         TOTAL TIME 8.64000E+05  14400.      240.00      10.000     2.73785E-02
1

 SOLVING FOR HEAD 
     4 ITERATIONS FOR TIME STEP  10 IN STRESS PERIOD    2

 OUTPUT CONTROL FOR STRESS PERIOD    2   TIME STEP   10
    SAVE HEAD FOR ALL LAYERS
    SAVE DRAWDOWN FOR ALL LAYERS
    SAVE BUDGET
    PRINT HEAD FOR ALL LAYERS
    PRINT BUDGET
 UBDSV1 SAVING "         STORAGE" ON UNIT  53 AT TIME STEP 10, STRESS PERIOD   2
 UBDSV2 SAVING "   CONSTANT HEAD" ON UNIT  53 AT TIME STEP 10, STRESS PERIOD   2
 UBDSV1 SAVING "FLOW RIGHT FACE " ON UNIT  53 AT TIME STEP 10, STRESS PERIOD   2
 UBDSV1 SAVING "FLOW FRONT FACE " ON UNIT  53 AT TIME STEP 10, STRESS PERIOD   2
1
              HEAD IN LAYER   1 AT END OF TIME STEP  10 IN STRESS PERIOD    2
  ---------------------------------------------------------------------------

            1           2           3           4           5           6           7           8           9          10
 ........................................................................................................................
   1    9.996       9.538       9.015       8.364       7.528       6.465       5.153       3.603       1.864      1.8461E-02
   2    9.996       9.538       9.015       8.364       7.528       6.465       5.153       3.603       1.864      1.8461E-02
   3    9.996       9.538       9.015       8.364       7.528       6.465       5.153       3.603       1.864      1.8462E-02
   4    9.996       9.538       9.015       8.364       7.528       6.465       5.153       3.603       1.864      1.8462E-02
   5    9.996       9.538       9.015       8.364       7.528       6.465       5.153       3.603       1.864      1.8462E-02
   6    9.996       9.538       9.015       8.364       7.528       6.465       5.153       3.603       1.864      1.8462E-02
   7    9.996       9.538       9.015       8.364       7.528       6.465       5.153       3.603       1.864      1.8462E-02
   8    9.996       9.538       9.015       8.364       7.528       6.465       5.153       3.603       1.864      1.8462E-02
   9    9.996       9.538       9.015       8.364       7.528       6.465       5.153       3.603       1.864      1.8462E-02
  10    9.996       9.538       9.015       8.364       7.528       6.465       5.153       3.603       1.864      1.8462E-02

 HEAD WILL BE SAVED ON UNIT   51 AT END OF TIME STEP   10, STRESS PERIOD    2

 DRAWDOWN WILL BE SAVED ON UNIT   52 AT END OF TIME STEP   10, STRESS PERIOD    2
1
  VOLUMETRIC BUDGET FOR ENTIRE MODEL AT END OF TIME STEP   10, STRESS PERIOD   2
  ------------------------------------------------------------------------------

     CUMULATIVE VOLUMES      L**3       RATES FOR THIS TIME STEP      L**3/T
     ------------------                 ------------------------

           IN:                                      IN:
           ---                                      ---
             STORAGE =       19228.5078               STORAGE =         694.2526
       CONSTANT HEAD =           0.0000         CONSTANT HEAD =           0.0000
               WELLS =           0.0000                 WELLS =           0.0000
     HEAD DEP BOUNDS =         953.4172       HEAD DEP BOUNDS =         228.7702

            TOTAL IN =       20181.9258              TOTAL IN =         923.0228

          OUT:                                     OUT:
          ----                                     ----
             STORAGE =           0.0000               STORAGE =           0.0000
       CONSTANT HEAD =           0.0000         CONSTANT HEAD =           0.0000
               WELLS =           0.0000                 WELLS =           0.0000
     HEAD DEP BOUNDS =       20182.1152       HEAD DEP BOUNDS =         923.0875

           TOTAL OUT =       20182.1152             TOTAL OUT =         923.0875

            IN - OUT =          -0.1895              IN - OUT =      -6.4758E-02

 PERCENT DISCREPANCY =          -0.00     PERCENT DISCREPANCY =          -0.01






         TIME SUMMARY AT END OF TIME STEP   10 IN STRESS PERIOD    2
                    SECONDS     MINUTES      HOURS       DAYS        YEARS
                    -----------------------------------------------------------
   TIME STEP LENGTH  86400.      1440.0      24.000      1.0000     2.73785E-03
 STRESS PERIOD TIME 8.64000E+05  14400.      240.00      10.000     2.73785E-02
         TOTAL TIME 9.50400E+05  15840.      264.00      11.000     3.01164E-02
1

 SOLVING FOR HEAD 
     4 ITERATIONS FOR TIME STEP  11 IN STRESS PERIOD    2

 OUTPUT CONTROL FOR STRESS PERIOD    2   TIME STEP   11
    SAVE HEAD FOR ALL LAYERS
    SAVE DRAWDOWN FOR ALL LAYERS
    SAVE BUDGET
    PRINT HEAD FOR ALL LAYERS
    PRINT BUDGET
 UBDSV1 SAVING "         STORAGE" ON UNIT  53 AT TIME STEP 11, STRESS PERIOD   2
 UBDSV2 SAVING "   CONSTANT HEAD" ON UNIT  53 AT TIME STEP 11, STRESS PERIOD   2
 UBDSV1 SAVING "FLOW RIGHT FACE " ON UNIT  53 AT TIME STEP 11, STRESS PERIOD   2
 UBDSV1 SAVING "FLOW FRONT FACE " ON UNIT  53 AT TIME STEP 11, STRESS PERIOD   2
1
              HEAD IN LAYER   1 AT END OF TIME STEP  11 IN STRESS PERIOD    2
  ---------------------------------------------------------------------------

            1           2           3           4           5           6           7           8           9          10
 ........................................................................................................................
   1    9.996       9.476       8.895       8.193       7.322       6.244       4.946       3.441       1.774      1.7573E-02
   2    9.996       9.476       8.895       8.193       7.322       6.244       4.946       3.441       1.774      1.7573E-02
   3    9.996       9.476       8.895       8.193       7.322       6.244       4.946       3.441       1.774      1.7574E-02
   4    9.996       9.476       8.895       8.193       7.322       6.244       4.946       3.441       1.774      1.7574E-02
   5    9.996       9.476       8.895       8.193       7.322       6.244       4.946       3.441       1.774      1.7574E-02
   6    9.996       9.476       8.895       8.193       7.322       6.244       4.946       3.441       1.774      1.7574E-02
   7    9.996       9.476       8.895       8.193       7.322       6.244       4.946       3.441       1.774      1.7574E-02
   8    9.996       9.476       8.895       8.193       7.322       6.244       4.946       3.441       1.774      1.7574E-02
   9    9.996       9.476       8.895       8.193       7.322       6.244       4.946       3.441       1.774      1.7574E-02
  10    9.996       9.476       8.895       8.193       7.322       6.244       4.946       3.441       1.774      1.7574E-02

 HEAD WILL BE SAVED ON UNIT   51 AT END OF TIME STEP   11, STRESS PERIOD    2

 DRAWDOWN WILL BE SAVED ON UNIT   52 AT END OF TIME STEP   11, STRESS PERIOD    2
1
  VOLUMETRIC BUDGET FOR ENTIRE MODEL AT END OF TIME STEP   11, STRESS PERIOD   2
  ------------------------------------------------------------------------------

     CUMULATIVE VOLUMES      L**3       RATES FOR THIS TIME STEP      L**3/T
     ------------------                 ------------------------

           IN:                                      IN:
           ---                                      ---
             STORAGE =       19847.6445               STORAGE =         619.1376
       CONSTANT HEAD =           0.0000         CONSTANT HEAD =           0.0000
               WELLS =           0.0000                 WELLS =           0.0000
     HEAD DEP BOUNDS =        1212.9086       HEAD DEP BOUNDS =         259.4914

            TOTAL IN =       21060.5527              TOTAL IN =         878.6290

          OUT:                                     OUT:
          ----                                     ----
             STORAGE =           0.0000               STORAGE =           0.0000
       CONSTANT HEAD =           0.0000         CONSTANT HEAD =           0.0000
               WELLS =           0.0000                 WELLS =           0.0000
     HEAD DEP BOUNDS =       21060.7988       HEAD DEP BOUNDS =         878.6829

           TOTAL OUT =       21060.7988             TOTAL OUT =         878.6829

            IN - OUT =          -0.2461              IN - OUT =      -5.3894E-02

 PERCENT DISCREPANCY =          -0.00     PERCENT DISCREPANCY =          -0.01






         TIME SUMMARY AT END OF TIME STEP   11 IN STRESS PERIOD    2
                    SECONDS     MINUTES      HOURS       DAYS        YEARS
                    -----------------------------------------------------------
   TIME STEP LENGTH  86400.      1440.0      24.000      1.0000     2.73785E-03
 STRESS PERIOD TIME 9.50400E+05  15840.      264.00      11.000     3.01164E-02
         TOTAL TIME 1.03680E+06  17280.      288.00      12.000     3.28542E-02
1

 SOLVING FOR HEAD 
     4 ITERATIONS FOR TIME STEP  12 IN STRESS PERIOD    2

 OUTPUT CONTROL FOR STRESS PERIOD    2   TIME STEP   12
    SAVE HEAD FOR ALL LAYERS
    SAVE DRAWDOWN FOR ALL LAYERS
    SAVE BUDGET
    PRINT HEAD FOR ALL LAYERS
    PRINT BUDGET
 UBDSV1 SAVING "         STORAGE" ON UNIT  53 AT TIME STEP 12, STRESS PERIOD   2
 UBDSV2 SAVING "   CONSTANT HEAD" ON UNIT  53 AT TIME STEP 12, STRESS PERIOD   2
 UBDSV1 SAVING "FLOW RIGHT FACE " ON UNIT  53 AT TIME STEP 12, STRESS PERIOD   2
 UBDSV1 SAVING "FLOW FRONT FACE " ON UNIT  53 AT TIME STEP 12, STRESS PERIOD   2
1
              HEAD IN LAYER   1 AT END OF TIME STEP  12 IN STRESS PERIOD    2
  ---------------------------------------------------------------------------

            1           2           3           4           5           6           7           8           9          10
 ........................................................................................................................
   1    9.995       9.418       8.784       8.038       7.136       6.048       4.765       3.301       1.697      1.6813E-02
   2    9.995       9.418       8.784       8.038       7.136       6.048       4.765       3.301       1.697      1.6813E-02
   3    9.995       9.418       8.784       8.038       7.136       6.048       4.765       3.301       1.697      1.6813E-02
   4    9.995       9.418       8.784       8.038       7.136       6.048       4.765       3.301       1.697      1.6813E-02
   5    9.995       9.418       8.784       8.038       7.136       6.048       4.765       3.301       1.697      1.6813E-02
   6    9.995       9.418       8.784       8.038       7.136       6.049       4.765       3.301       1.697      1.6813E-02
   7    9.995       9.418       8.784       8.038       7.136       6.049       4.765       3.301       1.697      1.6813E-02
   8    9.995       9.418       8.784       8.038       7.136       6.049       4.765       3.301       1.697      1.6813E-02
   9    9.995       9.418       8.784       8.038       7.136       6.049       4.765       3.301       1.697      1.6813E-02
  10    9.995       9.418       8.784       8.038       7.136       6.048       4.765       3.301       1.697      1.6813E-02

 HEAD WILL BE SAVED ON UNIT   51 AT END OF TIME STEP   12, STRESS PERIOD    2

 DRAWDOWN WILL BE SAVED ON UNIT   52 AT END OF TIME STEP   12, STRESS PERIOD    2
1
  VOLUMETRIC BUDGET FOR ENTIRE MODEL AT END OF TIME STEP   12, STRESS PERIOD   2
  ------------------------------------------------------------------------------

     CUMULATIVE VOLUMES      L**3       RATES FOR THIS TIME STEP      L**3/T
     ------------------                 ------------------------

           IN:                                      IN:
           ---                                      ---
             STORAGE =       20400.0527               STORAGE =         552.4075
       CONSTANT HEAD =           0.0000         CONSTANT HEAD =           0.0000
               WELLS =           0.0000                 WELLS =           0.0000
     HEAD DEP BOUNDS =        1501.0864       HEAD DEP BOUNDS =         288.1779

            TOTAL IN =       21901.1387              TOTAL IN =         840.5853

          OUT:                                     OUT:
          ----                                     ----
             STORAGE =           0.0000               STORAGE =           0.0000
       CONSTANT HEAD =           0.0000         CONSTANT HEAD =           0.0000
               WELLS =           0.0000                 WELLS =           0.0000
     HEAD DEP BOUNDS =       21901.4531       HEAD DEP BOUNDS =         840.6542

           TOTAL OUT =       21901.4531             TOTAL OUT =         840.6542

            IN - OUT =          -0.3145              IN - OUT =      -6.8848E-02

 PERCENT DISCREPANCY =          -0.00     PERCENT DISCREPANCY =          -0.01






         TIME SUMMARY AT END OF TIME STEP   12 IN STRESS PERIOD    2
                    SECONDS     MINUTES      HOURS       DAYS        YEARS
                    -----------------------------------------------------------
   TIME STEP LENGTH  86400.      1440.0      24.000      1.0000     2.73785E-03
 STRESS PERIOD TIME 1.03680E+06  17280.      288.00      12.000     3.28542E-02
         TOTAL TIME 1.12320E+06  18720.      312.00      13.000     3.55921E-02
1

 SOLVING FOR HEAD 
     4 ITERATIONS FOR TIME STEP  13 IN STRESS PERIOD    2

 OUTPUT CONTROL FOR STRESS PERIOD    2   TIME STEP   13
    SAVE HEAD FOR ALL LAYERS
    SAVE DRAWDOWN FOR ALL LAYERS
    SAVE BUDGET
    PRINT HEAD FOR ALL LAYERS
    PRINT BUDGET
 UBDSV1 SAVING "         STORAGE" ON UNIT  53 AT TIME STEP 13, STRESS PERIOD   2
 UBDSV2 SAVING "   CONSTANT HEAD" ON UNIT  53 AT TIME STEP 13, STRESS PERIOD   2
 UBDSV1 SAVING "FLOW RIGHT FACE " ON UNIT  53 AT TIME STEP 13, STRESS PERIOD   2
 UBDSV1 SAVING "FLOW FRONT FACE " ON UNIT  53 AT TIME STEP 13, STRESS PERIOD   2
1
              HEAD IN LAYER   1 AT END OF TIME STEP  13 IN STRESS PERIOD    2
  ---------------------------------------------------------------------------

            1           2           3           4           5           6           7           8           9          10
 ........................................................................................................................
   1    9.995       9.365       8.682       7.896       6.969       5.875       4.606       3.180       1.631      1.6155E-02
   2    9.995       9.365       8.682       7.896       6.969       5.875       4.606       3.180       1.631      1.6155E-02
   3    9.995       9.365       8.682       7.896       6.969       5.875       4.606       3.180       1.631      1.6155E-02
   4    9.995       9.365       8.682       7.896       6.969       5.875       4.606       3.180       1.631      1.6155E-02
   5    9.995       9.365       8.682       7.896       6.969       5.875       4.606       3.180       1.631      1.6155E-02
   6    9.995       9.365       8.682       7.896       6.969       5.875       4.606       3.180       1.631      1.6155E-02
   7    9.995       9.365       8.681       7.896       6.969       5.875       4.606       3.180       1.631      1.6156E-02
   8    9.995       9.365       8.681       7.896       6.969       5.875       4.606       3.180       1.631      1.6156E-02
   9    9.995       9.365       8.681       7.896       6.969       5.875       4.606       3.180       1.631      1.6156E-02
  10    9.995       9.365       8.681       7.896       6.969       5.875       4.606       3.180       1.631      1.6156E-02

 HEAD WILL BE SAVED ON UNIT   51 AT END OF TIME STEP   13, STRESS PERIOD    2

 DRAWDOWN WILL BE SAVED ON UNIT   52 AT END OF TIME STEP   13, STRESS PERIOD    2
1
  VOLUMETRIC BUDGET FOR ENTIRE MODEL AT END OF TIME STEP   13, STRESS PERIOD   2
  ------------------------------------------------------------------------------

     CUMULATIVE VOLUMES      L**3       RATES FOR THIS TIME STEP      L**3/T
     ------------------                 ------------------------

           IN:                                      IN:
           ---                                      ---
             STORAGE =       20893.0508               STORAGE =         492.9989
       CONSTANT HEAD =           0.0000         CONSTANT HEAD =           0.0000
               WELLS =           0.0000                 WELLS =           0.0000
     HEAD DEP BOUNDS =        1815.7908       HEAD DEP BOUNDS =         314.7043

            TOTAL IN =       22708.8418              TOTAL IN =         807.7032

          OUT:                                     OUT:
          ----                                     ----
             STORAGE =           0.0000               STORAGE =           0.0000
       CONSTANT HEAD =           0.0000         CONSTANT HEAD =           0.0000
               WELLS =           0.0000                 WELLS =           0.0000
     HEAD DEP BOUNDS =       22709.2246       HEAD DEP BOUNDS =         807.7706

           TOTAL OUT =       22709.2246             TOTAL OUT =         807.7706

            IN - OUT =          -0.3828              IN - OUT =      -6.7444E-02

 PERCENT DISCREPANCY =          -0.00     PERCENT DISCREPANCY =          -0.01






         TIME SUMMARY AT END OF TIME STEP   13 IN STRESS PERIOD    2
                    SECONDS     MINUTES      HOURS       DAYS        YEARS
                    -----------------------------------------------------------
   TIME STEP LENGTH  86400.      1440.0      24.000      1.0000     2.73785E-03
 STRESS PERIOD TIME 1.12320E+06  18720.      312.00      13.000     3.55921E-02
         TOTAL TIME 1.20960E+06  20160.      336.00      14.000     3.83299E-02
1

 SOLVING FOR HEAD 
     4 ITERATIONS FOR TIME STEP  14 IN STRESS PERIOD    2

 OUTPUT CONTROL FOR STRESS PERIOD    2   TIME STEP   14
    SAVE HEAD FOR ALL LAYERS
    SAVE DRAWDOWN FOR ALL LAYERS
    SAVE BUDGET
    PRINT HEAD FOR ALL LAYERS
    PRINT BUDGET
 UBDSV1 SAVING "         STORAGE" ON UNIT  53 AT TIME STEP 14, STRESS PERIOD   2
 UBDSV2 SAVING "   CONSTANT HEAD" ON UNIT  53 AT TIME STEP 14, STRESS PERIOD   2
 UBDSV1 SAVING "FLOW RIGHT FACE " ON UNIT  53 AT TIME STEP 14, STRESS PERIOD   2
 UBDSV1 SAVING "FLOW FRONT FACE " ON UNIT  53 AT TIME STEP 14, STRESS PERIOD   2
1
              HEAD IN LAYER   1 AT END OF TIME STEP  14 IN STRESS PERIOD    2
  ---------------------------------------------------------------------------

            1           2           3           4           5           6           7           8           9          10
 ........................................................................................................................
   1    9.994       9.316       8.588       7.768       6.819       5.720       4.467       3.073       1.573      1.5582E-02
   2    9.994       9.316       8.588       7.768       6.819       5.720       4.467       3.073       1.573      1.5582E-02
   3    9.994       9.316       8.588       7.768       6.819       5.720       4.467       3.073       1.573      1.5582E-02
   4    9.994       9.316       8.588       7.768       6.819       5.720       4.467       3.073       1.573      1.5582E-02
   5    9.994       9.316       8.588       7.768       6.819       5.720       4.467       3.073       1.573      1.5582E-02
   6    9.994       9.316       8.588       7.768       6.819       5.720       4.467       3.073       1.573      1.5583E-02
   7    9.994       9.316       8.588       7.768       6.819       5.720       4.467       3.073       1.573      1.5583E-02
   8    9.994       9.316       8.588       7.768       6.819       5.720       4.467       3.073       1.573      1.5583E-02
   9    9.994       9.316       8.588       7.768       6.819       5.720       4.467       3.073       1.573      1.5583E-02
  10    9.994       9.316       8.588       7.768       6.819       5.720       4.467       3.073       1.573      1.5583E-02

 HEAD WILL BE SAVED ON UNIT   51 AT END OF TIME STEP   14, STRESS PERIOD    2

 DRAWDOWN WILL BE SAVED ON UNIT   52 AT END OF TIME STEP   14, STRESS PERIOD    2
1
  VOLUMETRIC BUDGET FOR ENTIRE MODEL AT END OF TIME STEP   14, STRESS PERIOD   2
  ------------------------------------------------------------------------------

     CUMULATIVE VOLUMES      L**3       RATES FOR THIS TIME STEP      L**3/T
     ------------------                 ------------------------

           IN:                                      IN:
           ---                                      ---
             STORAGE =       21333.0938               STORAGE =         440.0439
       CONSTANT HEAD =           0.0000         CONSTANT HEAD =           0.0000
               WELLS =           0.0000                 WELLS =           0.0000
     HEAD DEP BOUNDS =        2154.8228       HEAD DEP BOUNDS =         339.0320

            TOTAL IN =       23487.9160              TOTAL IN =         779.0759

          OUT:                                     OUT:
          ----                                     ----
             STORAGE =           0.0000               STORAGE =           0.0000
       CONSTANT HEAD =           0.0000         CONSTANT HEAD =           0.0000
               WELLS =           0.0000                 WELLS =           0.0000
     HEAD DEP BOUNDS =       23488.3496       HEAD DEP BOUNDS =         779.1248

           TOTAL OUT =       23488.3496             TOTAL OUT =         779.1248

            IN - OUT =          -0.4336              IN - OUT =      -4.8950E-02

 PERCENT DISCREPANCY =          -0.00     PERCENT DISCREPANCY =          -0.01






         TIME SUMMARY AT END OF TIME STEP   14 IN STRESS PERIOD    2
                    SECONDS     MINUTES      HOURS       DAYS        YEARS
                    -----------------------------------------------------------
   TIME STEP LENGTH  86400.      1440.0      24.000      1.0000     2.73785E-03
 STRESS PERIOD TIME 1.20960E+06  20160.      336.00      14.000     3.83299E-02
         TOTAL TIME 1.29600E+06  21600.      360.00      15.000     4.10678E-02
1

 SOLVING FOR HEAD 
     4 ITERATIONS FOR TIME STEP  15 IN STRESS PERIOD    2

 OUTPUT CONTROL FOR STRESS PERIOD    2   TIME STEP   15
    SAVE HEAD FOR ALL LAYERS
    SAVE DRAWDOWN FOR ALL LAYERS
    SAVE BUDGET
    PRINT HEAD FOR ALL LAYERS
    PRINT BUDGET
 UBDSV1 SAVING "         STORAGE" ON UNIT  53 AT TIME STEP 15, STRESS PERIOD   2
 UBDSV2 SAVING "   CONSTANT HEAD" ON UNIT  53 AT TIME STEP 15, STRESS PERIOD   2
 UBDSV1 SAVING "FLOW RIGHT FACE " ON UNIT  53 AT TIME STEP 15, STRESS PERIOD   2
 UBDSV1 SAVING "FLOW FRONT FACE " ON UNIT  53 AT TIME STEP 15, STRESS PERIOD   2
1
              HEAD IN LAYER   1 AT END OF TIME STEP  15 IN STRESS PERIOD    2
  ---------------------------------------------------------------------------

            1           2           3           4           5           6           7           8           9          10
 ........................................................................................................................
   1    9.994       9.271       8.504       7.652       6.684       5.582       4.343       2.980       1.523      1.5080E-02
   2    9.994       9.271       8.504       7.652       6.684       5.582       4.343       2.980       1.523      1.5080E-02
   3    9.994       9.271       8.504       7.652       6.684       5.582       4.343       2.980       1.523      1.5080E-02
   4    9.994       9.271       8.504       7.652       6.684       5.582       4.343       2.980       1.523      1.5081E-02
   5    9.994       9.271       8.504       7.652       6.684       5.582       4.343       2.980       1.523      1.5081E-02
   6    9.994       9.271       8.504       7.652       6.684       5.582       4.343       2.980       1.523      1.5081E-02
   7    9.994       9.271       8.504       7.652       6.684       5.582       4.343       2.980       1.523      1.5081E-02
   8    9.994       9.271       8.504       7.652       6.684       5.582       4.343       2.980       1.523      1.5081E-02
   9    9.994       9.271       8.504       7.652       6.684       5.582       4.343       2.980       1.523      1.5081E-02
  10    9.994       9.271       8.504       7.652       6.684       5.582       4.343       2.980       1.523      1.5081E-02

 HEAD WILL BE SAVED ON UNIT   51 AT END OF TIME STEP   15, STRESS PERIOD    2

 DRAWDOWN WILL BE SAVED ON UNIT   52 AT END OF TIME STEP   15, STRESS PERIOD    2
1
  VOLUMETRIC BUDGET FOR ENTIRE MODEL AT END OF TIME STEP   15, STRESS PERIOD   2
  ------------------------------------------------------------------------------

     CUMULATIVE VOLUMES      L**3       RATES FOR THIS TIME STEP      L**3/T
     ------------------                 ------------------------

           IN:                                      IN:
           ---                                      ---
             STORAGE =       21725.9023               STORAGE =         392.8088
       CONSTANT HEAD =           0.0000         CONSTANT HEAD =           0.0000
               WELLS =           0.0000                 WELLS =           0.0000
     HEAD DEP BOUNDS =        2515.9902       HEAD DEP BOUNDS =         361.1675

            TOTAL IN =       24241.8926              TOTAL IN =         753.9763

          OUT:                                     OUT:
          ----                                     ----
             STORAGE =           0.0000               STORAGE =           0.0000
       CONSTANT HEAD =           0.0000         CONSTANT HEAD =           0.0000
               WELLS =           0.0000                 WELLS =           0.0000
     HEAD DEP BOUNDS =       24242.3770       HEAD DEP BOUNDS =         754.0281

           TOTAL OUT =       24242.3770             TOTAL OUT =         754.0281

            IN - OUT =          -0.4844              IN - OUT =      -5.1758E-02

 PERCENT DISCREPANCY =          -0.00     PERCENT DISCREPANCY =          -0.01






         TIME SUMMARY AT END OF TIME STEP   15 IN STRESS PERIOD    2
                    SECONDS     MINUTES      HOURS       DAYS        YEARS
                    -----------------------------------------------------------
   TIME STEP LENGTH  86400.      1440.0      24.000      1.0000     2.73785E-03
 STRESS PERIOD TIME 1.29600E+06  21600.      360.00      15.000     4.10678E-02
         TOTAL TIME 1.38240E+06  23040.      384.00      16.000     4.38056E-02
1

 SOLVING FOR HEAD 
     4 ITERATIONS FOR TIME STEP  16 IN STRESS PERIOD    2

 OUTPUT CONTROL FOR STRESS PERIOD    2   TIME STEP   16
    SAVE HEAD FOR ALL LAYERS
    SAVE DRAWDOWN FOR ALL LAYERS
    SAVE BUDGET
    PRINT HEAD FOR ALL LAYERS
    PRINT BUDGET
 UBDSV1 SAVING "         STORAGE" ON UNIT  53 AT TIME STEP 16, STRESS PERIOD   2
 UBDSV2 SAVING "   CONSTANT HEAD" ON UNIT  53 AT TIME STEP 16, STRESS PERIOD   2
 UBDSV1 SAVING "FLOW RIGHT FACE " ON UNIT  53 AT TIME STEP 16, STRESS PERIOD   2
 UBDSV1 SAVING "FLOW FRONT FACE " ON UNIT  53 AT TIME STEP 16, STRESS PERIOD   2
1
              HEAD IN LAYER   1 AT END OF TIME STEP  16 IN STRESS PERIOD    2
  ---------------------------------------------------------------------------

            1           2           3           4           5           6           7           8           9          10
 ........................................................................................................................
   1    9.994       9.231       8.428       7.548       6.564       5.460       4.233       2.897       1.478      1.4639E-02
   2    9.994       9.231       8.428       7.548       6.564       5.460       4.233       2.897       1.478      1.4639E-02
   3    9.994       9.231       8.428       7.548       6.564       5.460       4.233       2.897       1.478      1.4639E-02
   4    9.994       9.231       8.428       7.548       6.564       5.460       4.233       2.897       1.478      1.4639E-02
   5    9.994       9.231       8.428       7.548       6.564       5.460       4.233       2.897       1.478      1.4639E-02
   6    9.994       9.231       8.428       7.548       6.564       5.460       4.233       2.897       1.478      1.4639E-02
   7    9.994       9.231       8.428       7.548       6.564       5.460       4.233       2.897       1.478      1.4639E-02
   8    9.994       9.231       8.428       7.548       6.564       5.460       4.233       2.897       1.478      1.4639E-02
   9    9.994       9.231       8.428       7.548       6.564       5.460       4.233       2.897       1.478      1.4639E-02
  10    9.994       9.231       8.428       7.548       6.564       5.460       4.233       2.897       1.478      1.4639E-02

 HEAD WILL BE SAVED ON UNIT   51 AT END OF TIME STEP   16, STRESS PERIOD    2

 DRAWDOWN WILL BE SAVED ON UNIT   52 AT END OF TIME STEP   16, STRESS PERIOD    2
1
  VOLUMETRIC BUDGET FOR ENTIRE MODEL AT END OF TIME STEP   16, STRESS PERIOD   2
  ------------------------------------------------------------------------------

     CUMULATIVE VOLUMES      L**3       RATES FOR THIS TIME STEP      L**3/T
     ------------------                 ------------------------

           IN:                                      IN:
           ---                                      ---
             STORAGE =       22076.5645               STORAGE =         350.6612
       CONSTANT HEAD =           0.0000         CONSTANT HEAD =           0.0000
               WELLS =           0.0000                 WELLS =           0.0000
     HEAD DEP BOUNDS =        2897.2371       HEAD DEP BOUNDS =         381.2467

            TOTAL IN =       24973.8008              TOTAL IN =         731.9080

          OUT:                                     OUT:
          ----                                     ----
             STORAGE =           0.0000               STORAGE =           0.0000
       CONSTANT HEAD =           0.0000         CONSTANT HEAD =           0.0000
               WELLS =           0.0000                 WELLS =           0.0000
     HEAD DEP BOUNDS =       24974.3203       HEAD DEP BOUNDS =         731.9443

           TOTAL OUT =       24974.3203             TOTAL OUT =         731.9443

            IN - OUT =          -0.5195              IN - OUT =      -3.6377E-02

 PERCENT DISCREPANCY =          -0.00     PERCENT DISCREPANCY =          -0.00






         TIME SUMMARY AT END OF TIME STEP   16 IN STRESS PERIOD    2
                    SECONDS     MINUTES      HOURS       DAYS        YEARS
                    -----------------------------------------------------------
   TIME STEP LENGTH  86400.      1440.0      24.000      1.0000     2.73785E-03
 STRESS PERIOD TIME 1.38240E+06  23040.      384.00      16.000     4.38056E-02
         TOTAL TIME 1.46880E+06  24480.      408.00      17.000     4.65435E-02
1

 SOLVING FOR HEAD 
     4 ITERATIONS FOR TIME STEP  17 IN STRESS PERIOD    2

 OUTPUT CONTROL FOR STRESS PERIOD    2   TIME STEP   17
    SAVE HEAD FOR ALL LAYERS
    SAVE DRAWDOWN FOR ALL LAYERS
    SAVE BUDGET
    PRINT HEAD FOR ALL LAYERS
    PRINT BUDGET
 UBDSV1 SAVING "         STORAGE" ON UNIT  53 AT TIME STEP 17, STRESS PERIOD   2
 UBDSV2 SAVING "   CONSTANT HEAD" ON UNIT  53 AT TIME STEP 17, STRESS PERIOD   2
 UBDSV1 SAVING "FLOW RIGHT FACE " ON UNIT  53 AT TIME STEP 17, STRESS PERIOD   2
 UBDSV1 SAVING "FLOW FRONT FACE " ON UNIT  53 AT TIME STEP 17, STRESS PERIOD   2
1
              HEAD IN LAYER   1 AT END OF TIME STEP  17 IN STRESS PERIOD    2
  ---------------------------------------------------------------------------

            1           2           3           4           5           6           7           8           9          10
 ........................................................................................................................
   1    9.993       9.194       8.359       7.454       6.456       5.351       4.136       2.824       1.439      1.4249E-02
   2    9.993       9.194       8.359       7.454       6.456       5.351       4.136       2.824       1.439      1.4249E-02
   3    9.993       9.194       8.359       7.454       6.456       5.351       4.136       2.824       1.439      1.4249E-02
   4    9.993       9.194       8.359       7.454       6.456       5.351       4.136       2.824       1.439      1.4249E-02
   5    9.993       9.194       8.359       7.454       6.456       5.351       4.136       2.824       1.439      1.4249E-02
   6    9.993       9.194       8.359       7.454       6.456       5.351       4.136       2.824       1.439      1.4249E-02
   7    9.993       9.194       8.359       7.454       6.456       5.351       4.136       2.824       1.439      1.4249E-02
   8    9.993       9.194       8.359       7.454       6.456       5.351       4.136       2.824       1.439      1.4249E-02
   9    9.993       9.194       8.359       7.454       6.456       5.351       4.136       2.824       1.439      1.4249E-02
  10    9.993       9.194       8.359       7.454       6.456       5.351       4.136       2.824       1.439      1.4249E-02

 HEAD WILL BE SAVED ON UNIT   51 AT END OF TIME STEP   17, STRESS PERIOD    2

 DRAWDOWN WILL BE SAVED ON UNIT   52 AT END OF TIME STEP   17, STRESS PERIOD    2
1
  VOLUMETRIC BUDGET FOR ENTIRE MODEL AT END OF TIME STEP   17, STRESS PERIOD   2
  ------------------------------------------------------------------------------

     CUMULATIVE VOLUMES      L**3       RATES FOR THIS TIME STEP      L**3/T
     ------------------                 ------------------------

           IN:                                      IN:
           ---                                      ---
             STORAGE =       22389.6074               STORAGE =         313.0428
       CONSTANT HEAD =           0.0000         CONSTANT HEAD =           0.0000
               WELLS =           0.0000                 WELLS =           0.0000
     HEAD DEP BOUNDS =        3296.5962       HEAD DEP BOUNDS =         399.3592

            TOTAL IN =       25686.2031              TOTAL IN =         712.4020

          OUT:                                     OUT:
          ----                                     ----
             STORAGE =           0.0000               STORAGE =           0.0000
       CONSTANT HEAD =           0.0000         CONSTANT HEAD =           0.0000
               WELLS =           0.0000                 WELLS =           0.0000
     HEAD DEP BOUNDS =       25686.7656       HEAD DEP BOUNDS =         712.4462

           TOTAL OUT =       25686.7656             TOTAL OUT =         712.4462

            IN - OUT =          -0.5625              IN - OUT =      -4.4189E-02

 PERCENT DISCREPANCY =          -0.00     PERCENT DISCREPANCY =          -0.01






         TIME SUMMARY AT END OF TIME STEP   17 IN STRESS PERIOD    2
                    SECONDS     MINUTES      HOURS       DAYS        YEARS
                    -----------------------------------------------------------
   TIME STEP LENGTH  86400.      1440.0      24.000      1.0000     2.73785E-03
 STRESS PERIOD TIME 1.46880E+06  24480.      408.00      17.000     4.65435E-02
         TOTAL TIME 1.55520E+06  25920.      432.00      18.000     4.92813E-02
1

 SOLVING FOR HEAD 
     4 ITERATIONS FOR TIME STEP  18 IN STRESS PERIOD    2

 OUTPUT CONTROL FOR STRESS PERIOD    2   TIME STEP   18
    SAVE HEAD FOR ALL LAYERS
    SAVE DRAWDOWN FOR ALL LAYERS
    SAVE BUDGET
    PRINT HEAD FOR ALL LAYERS
    PRINT BUDGET
 UBDSV1 SAVING "         STORAGE" ON UNIT  53 AT TIME STEP 18, STRESS PERIOD   2
 UBDSV2 SAVING "   CONSTANT HEAD" ON UNIT  53 AT TIME STEP 18, STRESS PERIOD   2
 UBDSV1 SAVING "FLOW RIGHT FACE " ON UNIT  53 AT TIME STEP 18, STRESS PERIOD   2
 UBDSV1 SAVING "FLOW FRONT FACE " ON UNIT  53 AT TIME STEP 18, STRESS PERIOD   2
1
              HEAD IN LAYER   1 AT END OF TIME STEP  18 IN STRESS PERIOD    2
  ---------------------------------------------------------------------------

            1           2           3           4           5           6           7           8           9          10
 ........................................................................................................................
   1    9.993       9.161       8.297       7.370       6.360       5.253       4.050       2.759       1.404      1.3903E-02
   2    9.993       9.161       8.297       7.370       6.360       5.253       4.050       2.759       1.404      1.3904E-02
   3    9.993       9.161       8.297       7.370       6.360       5.253       4.050       2.759       1.404      1.3904E-02
   4    9.993       9.161       8.297       7.370       6.360       5.253       4.050       2.759       1.404      1.3904E-02
   5    9.993       9.161       8.297       7.370       6.360       5.253       4.050       2.759       1.404      1.3904E-02
   6    9.993       9.161       8.297       7.370       6.360       5.253       4.050       2.759       1.404      1.3904E-02
   7    9.993       9.161       8.297       7.370       6.360       5.253       4.050       2.759       1.404      1.3904E-02
   8    9.993       9.161       8.297       7.370       6.360       5.253       4.050       2.759       1.404      1.3904E-02
   9    9.993       9.161       8.297       7.370       6.360       5.253       4.050       2.759       1.404      1.3904E-02
  10    9.993       9.161       8.297       7.370       6.360       5.253       4.050       2.759       1.404      1.3904E-02

 HEAD WILL BE SAVED ON UNIT   51 AT END OF TIME STEP   18, STRESS PERIOD    2

 DRAWDOWN WILL BE SAVED ON UNIT   52 AT END OF TIME STEP   18, STRESS PERIOD    2
1
  VOLUMETRIC BUDGET FOR ENTIRE MODEL AT END OF TIME STEP   18, STRESS PERIOD   2
  ------------------------------------------------------------------------------

     CUMULATIVE VOLUMES      L**3       RATES FOR THIS TIME STEP      L**3/T
     ------------------                 ------------------------

           IN:                                      IN:
           ---                                      ---
             STORAGE =       22669.0723               STORAGE =         279.4654
       CONSTANT HEAD =           0.0000         CONSTANT HEAD =           0.0000
               WELLS =           0.0000                 WELLS =           0.0000
     HEAD DEP BOUNDS =        3712.2822       HEAD DEP BOUNDS =         415.6859

            TOTAL IN =       26381.3555              TOTAL IN =         695.1514

          OUT:                                     OUT:
          ----                                     ----
             STORAGE =           0.0000               STORAGE =           0.0000
       CONSTANT HEAD =           0.0000         CONSTANT HEAD =           0.0000
               WELLS =           0.0000                 WELLS =           0.0000
     HEAD DEP BOUNDS =       26381.9512       HEAD DEP BOUNDS =         695.1863

           TOTAL OUT =       26381.9512             TOTAL OUT =         695.1863

            IN - OUT =          -0.5957              IN - OUT =      -3.4973E-02

 PERCENT DISCREPANCY =          -0.00     PERCENT DISCREPANCY =          -0.01






         TIME SUMMARY AT END OF TIME STEP   18 IN STRESS PERIOD    2
                    SECONDS     MINUTES      HOURS       DAYS        YEARS
                    -----------------------------------------------------------
   TIME STEP LENGTH  86400.      1440.0      24.000      1.0000     2.73785E-03
 STRESS PERIOD TIME 1.55520E+06  25920.      432.00      18.000     4.92813E-02
         TOTAL TIME 1.64160E+06  27360.      456.00      19.000     5.20192E-02
1

 SOLVING FOR HEAD 
     4 ITERATIONS FOR TIME STEP  19 IN STRESS PERIOD    2

 OUTPUT CONTROL FOR STRESS PERIOD    2   TIME STEP   19
    SAVE HEAD FOR ALL LAYERS
    SAVE DRAWDOWN FOR ALL LAYERS
    SAVE BUDGET
    PRINT HEAD FOR ALL LAYERS
    PRINT BUDGET
 UBDSV1 SAVING "         STORAGE" ON UNIT  53 AT TIME STEP 19, STRESS PERIOD   2
 UBDSV2 SAVING "   CONSTANT HEAD" ON UNIT  53 AT TIME STEP 19, STRESS PERIOD   2
 UBDSV1 SAVING "FLOW RIGHT FACE " ON UNIT  53 AT TIME STEP 19, STRESS PERIOD   2
 UBDSV1 SAVING "FLOW FRONT FACE " ON UNIT  53 AT TIME STEP 19, STRESS PERIOD   2
1
              HEAD IN LAYER   1 AT END OF TIME STEP  19 IN STRESS PERIOD    2
  ---------------------------------------------------------------------------

            1           2           3           4           5           6           7           8           9          10
 ........................................................................................................................
   1    9.993       9.132       8.241       7.295       6.274       5.167       3.973       2.702       1.373      1.3597E-02
   2    9.993       9.132       8.241       7.295       6.274       5.167       3.973       2.702       1.373      1.3597E-02
   3    9.993       9.132       8.241       7.295       6.274       5.167       3.973       2.702       1.373      1.3597E-02
   4    9.993       9.132       8.241       7.295       6.274       5.167       3.973       2.702       1.373      1.3598E-02
   5    9.993       9.132       8.241       7.295       6.274       5.167       3.973       2.702       1.373      1.3598E-02
   6    9.993       9.132       8.241       7.295       6.274       5.167       3.973       2.702       1.373      1.3598E-02
   7    9.993       9.132       8.241       7.295       6.274       5.167       3.973       2.702       1.373      1.3598E-02
   8    9.993       9.132       8.241       7.295       6.274       5.167       3.973       2.702       1.373      1.3598E-02
   9    9.993       9.132       8.241       7.295       6.274       5.167       3.973       2.702       1.373      1.3598E-02
  10    9.993       9.132       8.241       7.295       6.274       5.167       3.973       2.702       1.373      1.3598E-02

 HEAD WILL BE SAVED ON UNIT   51 AT END OF TIME STEP   19, STRESS PERIOD    2

 DRAWDOWN WILL BE SAVED ON UNIT   52 AT END OF TIME STEP   19, STRESS PERIOD    2
1
  VOLUMETRIC BUDGET FOR ENTIRE MODEL AT END OF TIME STEP   19, STRESS PERIOD   2
  ------------------------------------------------------------------------------

     CUMULATIVE VOLUMES      L**3       RATES FOR THIS TIME STEP      L**3/T
     ------------------                 ------------------------

           IN:                                      IN:
           ---                                      ---
             STORAGE =       22918.5625               STORAGE =         249.4906
       CONSTANT HEAD =           0.0000         CONSTANT HEAD =           0.0000
               WELLS =           0.0000                 WELLS =           0.0000
     HEAD DEP BOUNDS =        4142.6567       HEAD DEP BOUNDS =         430.3743

            TOTAL IN =       27061.2188              TOTAL IN =         679.8649

          OUT:                                     OUT:
          ----                                     ----
             STORAGE =           0.0000               STORAGE =           0.0000
       CONSTANT HEAD =           0.0000         CONSTANT HEAD =           0.0000
               WELLS =           0.0000                 WELLS =           0.0000
     HEAD DEP BOUNDS =       27061.8281       HEAD DEP BOUNDS =         679.8775

           TOTAL OUT =       27061.8281             TOTAL OUT =         679.8775

            IN - OUT =          -0.6094              IN - OUT =      -1.2634E-02

 PERCENT DISCREPANCY =          -0.00     PERCENT DISCREPANCY =          -0.00






         TIME SUMMARY AT END OF TIME STEP   19 IN STRESS PERIOD    2
                    SECONDS     MINUTES      HOURS       DAYS        YEARS
                    -----------------------------------------------------------
   TIME STEP LENGTH  86400.      1440.0      24.000      1.0000     2.73785E-03
 STRESS PERIOD TIME 1.64160E+06  27360.      456.00      19.000     5.20192E-02
         TOTAL TIME 1.72800E+06  28800.      480.00      20.000     5.47570E-02
1

 SOLVING FOR HEAD 
     4 ITERATIONS FOR TIME STEP  20 IN STRESS PERIOD    2

 OUTPUT CONTROL FOR STRESS PERIOD    2   TIME STEP   20
    SAVE HEAD FOR ALL LAYERS
    SAVE DRAWDOWN FOR ALL LAYERS
    SAVE BUDGET
    PRINT HEAD FOR ALL LAYERS
    PRINT BUDGET
 UBDSV1 SAVING "         STORAGE" ON UNIT  53 AT TIME STEP 20, STRESS PERIOD   2
 UBDSV2 SAVING "   CONSTANT HEAD" ON UNIT  53 AT TIME STEP 20, STRESS PERIOD   2
 UBDSV1 SAVING "FLOW RIGHT FACE " ON UNIT  53 AT TIME STEP 20, STRESS PERIOD   2
 UBDSV1 SAVING "FLOW FRONT FACE " ON UNIT  53 AT TIME STEP 20, STRESS PERIOD   2
1
              HEAD IN LAYER   1 AT END OF TIME STEP  20 IN STRESS PERIOD    2
  ---------------------------------------------------------------------------

            1           2           3           4           5           6           7           8           9          10
 ........................................................................................................................
   1    9.993       9.105       8.192       7.228       6.197       5.089       3.904       2.650       1.346      1.3325E-02
   2    9.993       9.105       8.192       7.228       6.197       5.089       3.904       2.650       1.346      1.3325E-02
   3    9.993       9.105       8.192       7.228       6.197       5.089       3.904       2.650       1.346      1.3326E-02
   4    9.993       9.105       8.192       7.228       6.197       5.089       3.904       2.650       1.346      1.3326E-02
   5    9.993       9.105       8.192       7.228       6.197       5.089       3.904       2.650       1.346      1.3326E-02
   6    9.993       9.105       8.192       7.228       6.197       5.089       3.904       2.650       1.346      1.3326E-02
   7    9.993       9.105       8.192       7.228       6.197       5.089       3.904       2.650       1.346      1.3326E-02
   8    9.993       9.105       8.192       7.228       6.197       5.089       3.904       2.650       1.346      1.3326E-02
   9    9.993       9.105       8.192       7.228       6.197       5.089       3.904       2.650       1.346      1.3326E-02
  10    9.993       9.105       8.192       7.228       6.197       5.089       3.904       2.650       1.346      1.3326E-02

 HEAD WILL BE SAVED ON UNIT   51 AT END OF TIME STEP   20, STRESS PERIOD    2

 DRAWDOWN WILL BE SAVED ON UNIT   52 AT END OF TIME STEP   20, STRESS PERIOD    2
1
  VOLUMETRIC BUDGET FOR ENTIRE MODEL AT END OF TIME STEP   20, STRESS PERIOD   2
  ------------------------------------------------------------------------------

     CUMULATIVE VOLUMES      L**3       RATES FOR THIS TIME STEP      L**3/T
     ------------------                 ------------------------

           IN:                                      IN:
           ---                                      ---
             STORAGE =       23141.2949               STORAGE =         222.7323
       CONSTANT HEAD =           0.0000         CONSTANT HEAD =           0.0000
               WELLS =           0.0000                 WELLS =           0.0000
     HEAD DEP BOUNDS =        4586.1880       HEAD DEP BOUNDS =         443.5312

            TOTAL IN =       27727.4824              TOTAL IN =         666.2635

          OUT:                                     OUT:
          ----                                     ----
             STORAGE =           0.0000               STORAGE =           0.0000
       CONSTANT HEAD =           0.0000         CONSTANT HEAD =           0.0000
               WELLS =           0.0000                 WELLS =           0.0000
     HEAD DEP BOUNDS =       27728.1074       HEAD DEP BOUNDS =         666.2784

           TOTAL OUT =       27728.1074             TOTAL OUT =         666.2784

            IN - OUT =          -0.6250              IN - OUT =      -1.4893E-02

 PERCENT DISCREPANCY =          -0.00     PERCENT DISCREPANCY =          -0.00






         TIME SUMMARY AT END OF TIME STEP   20 IN STRESS PERIOD    2
                    SECONDS     MINUTES      HOURS       DAYS        YEARS
                    -----------------------------------------------------------
   TIME STEP LENGTH  86400.      1440.0      24.000      1.0000     2.73785E-03
 STRESS PERIOD TIME 1.72800E+06  28800.      480.00      20.000     5.47570E-02
         TOTAL TIME 1.81440E+06  30240.      504.00      21.000     5.74949E-02
1

 SOLVING FOR HEAD 
     4 ITERATIONS FOR TIME STEP  21 IN STRESS PERIOD    2

 OUTPUT CONTROL FOR STRESS PERIOD    2   TIME STEP   21
    SAVE HEAD FOR ALL LAYERS
    SAVE DRAWDOWN FOR ALL LAYERS
    SAVE BUDGET
    PRINT HEAD FOR ALL LAYERS
    PRINT BUDGET
 UBDSV1 SAVING "         STORAGE" ON UNIT  53 AT TIME STEP 21, STRESS PERIOD   2
 UBDSV2 SAVING "   CONSTANT HEAD" ON UNIT  53 AT TIME STEP 21, STRESS PERIOD   2
 UBDSV1 SAVING "FLOW RIGHT FACE " ON UNIT  53 AT TIME STEP 21, STRESS PERIOD   2
 UBDSV1 SAVING "FLOW FRONT FACE " ON UNIT  53 AT TIME STEP 21, STRESS PERIOD   2
1
              HEAD IN LAYER   1 AT END OF TIME STEP  21 IN STRESS PERIOD    2
  ---------------------------------------------------------------------------

            1           2           3           4           5           6           7           8           9          10
 ........................................................................................................................
   1    9.992       9.082       8.147       7.168       6.128       5.020       3.843       2.605       1.321      1.3084E-02
   2    9.992       9.082       8.147       7.168       6.128       5.020       3.843       2.605       1.321      1.3084E-02
   3    9.992       9.082       8.147       7.168       6.128       5.020       3.843       2.605       1.321      1.3084E-02
   4    9.992       9.082       8.147       7.168       6.128       5.020       3.843       2.605       1.321      1.3084E-02
   5    9.992       9.082       8.147       7.168       6.128       5.020       3.843       2.605       1.321      1.3084E-02
   6    9.992       9.082       8.147       7.168       6.128       5.020       3.843       2.605       1.321      1.3084E-02
   7    9.992       9.082       8.147       7.168       6.128       5.020       3.843       2.605       1.321      1.3084E-02
   8    9.992       9.082       8.147       7.168       6.128       5.020       3.843       2.605       1.321      1.3084E-02
   9    9.992       9.082       8.147       7.168       6.128       5.020       3.843       2.605       1.321      1.3084E-02
  10    9.992       9.082       8.147       7.168       6.128       5.020       3.843       2.605       1.321      1.3084E-02

 HEAD WILL BE SAVED ON UNIT   51 AT END OF TIME STEP   21, STRESS PERIOD    2

 DRAWDOWN WILL BE SAVED ON UNIT   52 AT END OF TIME STEP   21, STRESS PERIOD    2
1
  VOLUMETRIC BUDGET FOR ENTIRE MODEL AT END OF TIME STEP   21, STRESS PERIOD   2
  ------------------------------------------------------------------------------

     CUMULATIVE VOLUMES      L**3       RATES FOR THIS TIME STEP      L**3/T
     ------------------                 ------------------------

           IN:                                      IN:
           ---                                      ---
             STORAGE =       23340.1406               STORAGE =         198.8448
       CONSTANT HEAD =           0.0000         CONSTANT HEAD =           0.0000
               WELLS =           0.0000                 WELLS =           0.0000
     HEAD DEP BOUNDS =        5041.5225       HEAD DEP BOUNDS =         455.3345

            TOTAL IN =       28381.6641              TOTAL IN =         654.1793

          OUT:                                     OUT:
          ----                                     ----
             STORAGE =           0.0000               STORAGE =           0.0000
       CONSTANT HEAD =           0.0000         CONSTANT HEAD =           0.0000
               WELLS =           0.0000                 WELLS =           0.0000
     HEAD DEP BOUNDS =       28382.2910       HEAD DEP BOUNDS =         654.1839

           TOTAL OUT =       28382.2910             TOTAL OUT =         654.1839

            IN - OUT =          -0.6270              IN - OUT =      -4.5776E-03

 PERCENT DISCREPANCY =          -0.00     PERCENT DISCREPANCY =          -0.00






         TIME SUMMARY AT END OF TIME STEP   21 IN STRESS PERIOD    2
                    SECONDS     MINUTES      HOURS       DAYS        YEARS
                    -----------------------------------------------------------
   TIME STEP LENGTH  86400.      1440.0      24.000      1.0000     2.73785E-03
 STRESS PERIOD TIME 1.81440E+06  30240.      504.00      21.000     5.74949E-02
         TOTAL TIME 1.90080E+06  31680.      528.00      22.000     6.02327E-02
1

 SOLVING FOR HEAD 
     4 ITERATIONS FOR TIME STEP  22 IN STRESS PERIOD    2

 OUTPUT CONTROL FOR STRESS PERIOD    2   TIME STEP   22
    SAVE HEAD FOR ALL LAYERS
    SAVE DRAWDOWN FOR ALL LAYERS
    SAVE BUDGET
    PRINT HEAD FOR ALL LAYERS
    PRINT BUDGET
 UBDSV1 SAVING "         STORAGE" ON UNIT  53 AT TIME STEP 22, STRESS PERIOD   2
 UBDSV2 SAVING "   CONSTANT HEAD" ON UNIT  53 AT TIME STEP 22, STRESS PERIOD   2
 UBDSV1 SAVING "FLOW RIGHT FACE " ON UNIT  53 AT TIME STEP 22, STRESS PERIOD   2
 UBDSV1 SAVING "FLOW FRONT FACE " ON UNIT  53 AT TIME STEP 22, STRESS PERIOD   2
1
              HEAD IN LAYER   1 AT END OF TIME STEP  22 IN STRESS PERIOD    2
  ---------------------------------------------------------------------------

            1           2           3           4           5           6           7           8           9          10
 ........................................................................................................................
   1    9.992       9.060       8.107       7.114       6.067       4.959       3.789       2.564       1.299      1.2868E-02
   2    9.992       9.060       8.107       7.114       6.067       4.959       3.789       2.564       1.299      1.2868E-02
   3    9.992       9.060       8.107       7.114       6.067       4.959       3.789       2.564       1.299      1.2868E-02
   4    9.992       9.060       8.107       7.114       6.067       4.959       3.789       2.564       1.299      1.2868E-02
   5    9.992       9.060       8.107       7.114       6.067       4.959       3.789       2.564       1.299      1.2868E-02
   6    9.992       9.060       8.107       7.114       6.067       4.959       3.789       2.564       1.299      1.2868E-02
   7    9.992       9.060       8.107       7.114       6.067       4.959       3.789       2.564       1.299      1.2868E-02
   8    9.992       9.060       8.107       7.114       6.067       4.959       3.789       2.564       1.299      1.2868E-02
   9    9.992       9.060       8.107       7.114       6.067       4.959       3.789       2.564       1.299      1.2868E-02
  10    9.992       9.060       8.107       7.114       6.067       4.959       3.789       2.564       1.299      1.2868E-02

 HEAD WILL BE SAVED ON UNIT   51 AT END OF TIME STEP   22, STRESS PERIOD    2

 DRAWDOWN WILL BE SAVED ON UNIT   52 AT END OF TIME STEP   22, STRESS PERIOD    2
1
  VOLUMETRIC BUDGET FOR ENTIRE MODEL AT END OF TIME STEP   22, STRESS PERIOD   2
  ------------------------------------------------------------------------------

     CUMULATIVE VOLUMES      L**3       RATES FOR THIS TIME STEP      L**3/T
     ------------------                 ------------------------

           IN:                                      IN:
           ---                                      ---
             STORAGE =       23517.6582               STORAGE =         177.5185
       CONSTANT HEAD =           0.0000         CONSTANT HEAD =           0.0000
               WELLS =           0.0000                 WELLS =           0.0000
     HEAD DEP BOUNDS =        5507.3989       HEAD DEP BOUNDS =         465.8766

            TOTAL IN =       29025.0566              TOTAL IN =         643.3950

          OUT:                                     OUT:
          ----                                     ----
             STORAGE =           0.0000               STORAGE =           0.0000
       CONSTANT HEAD =           0.0000         CONSTANT HEAD =           0.0000
               WELLS =           0.0000                 WELLS =           0.0000
     HEAD DEP BOUNDS =       29025.7090       HEAD DEP BOUNDS =         643.4180

           TOTAL OUT =       29025.7090             TOTAL OUT =         643.4180

            IN - OUT =          -0.6523              IN - OUT =      -2.2949E-02

 PERCENT DISCREPANCY =          -0.00     PERCENT DISCREPANCY =          -0.00






         TIME SUMMARY AT END OF TIME STEP   22 IN STRESS PERIOD    2
                    SECONDS     MINUTES      HOURS       DAYS        YEARS
                    -----------------------------------------------------------
   TIME STEP LENGTH  86400.      1440.0      24.000      1.0000     2.73785E-03
 STRESS PERIOD TIME 1.90080E+06  31680.      528.00      22.000     6.02327E-02
         TOTAL TIME 1.98720E+06  33120.      552.00      23.000     6.29706E-02
1

 SOLVING FOR HEAD 
     4 ITERATIONS FOR TIME STEP  23 IN STRESS PERIOD    2

 OUTPUT CONTROL FOR STRESS PERIOD    2   TIME STEP   23
    SAVE HEAD FOR ALL LAYERS
    SAVE DRAWDOWN FOR ALL LAYERS
    SAVE BUDGET
    PRINT HEAD FOR ALL LAYERS
    PRINT BUDGET
 UBDSV1 SAVING "         STORAGE" ON UNIT  53 AT TIME STEP 23, STRESS PERIOD   2
 UBDSV2 SAVING "   CONSTANT HEAD" ON UNIT  53 AT TIME STEP 23, STRESS PERIOD   2
 UBDSV1 SAVING "FLOW RIGHT FACE " ON UNIT  53 AT TIME STEP 23, STRESS PERIOD   2
 UBDSV1 SAVING "FLOW FRONT FACE " ON UNIT  53 AT TIME STEP 23, STRESS PERIOD   2
1
              HEAD IN LAYER   1 AT END OF TIME STEP  23 IN STRESS PERIOD    2
  ---------------------------------------------------------------------------

            1           2           3           4           5           6           7           8           9          10
 ........................................................................................................................
   1    9.992       9.041       8.071       7.066       6.012       4.904       3.740       2.528       1.280      1.2676E-02
   2    9.992       9.041       8.071       7.066       6.012       4.904       3.740       2.528       1.280      1.2676E-02
   3    9.992       9.041       8.071       7.066       6.012       4.904       3.740       2.528       1.280      1.2677E-02
   4    9.992       9.041       8.071       7.066       6.012       4.904       3.740       2.528       1.280      1.2677E-02
   5    9.992       9.041       8.071       7.066       6.012       4.904       3.740       2.528       1.280      1.2677E-02
   6    9.992       9.041       8.071       7.066       6.012       4.904       3.740       2.528       1.280      1.2677E-02
   7    9.992       9.041       8.071       7.066       6.012       4.904       3.740       2.528       1.280      1.2677E-02
   8    9.992       9.041       8.071       7.066       6.012       4.904       3.740       2.528       1.280      1.2677E-02
   9    9.992       9.041       8.071       7.066       6.012       4.904       3.740       2.528       1.280      1.2677E-02
  10    9.992       9.041       8.071       7.066       6.012       4.904       3.740       2.528       1.280      1.2677E-02

 HEAD WILL BE SAVED ON UNIT   51 AT END OF TIME STEP   23, STRESS PERIOD    2

 DRAWDOWN WILL BE SAVED ON UNIT   52 AT END OF TIME STEP   23, STRESS PERIOD    2
1
  VOLUMETRIC BUDGET FOR ENTIRE MODEL AT END OF TIME STEP   23, STRESS PERIOD   2
  ------------------------------------------------------------------------------

     CUMULATIVE VOLUMES      L**3       RATES FOR THIS TIME STEP      L**3/T
     ------------------                 ------------------------

           IN:                                      IN:
           ---                                      ---
             STORAGE =       23676.1387               STORAGE =         158.4801
       CONSTANT HEAD =           0.0000         CONSTANT HEAD =           0.0000
               WELLS =           0.0000                 WELLS =           0.0000
     HEAD DEP BOUNDS =        5982.7163       HEAD DEP BOUNDS =         475.3172

            TOTAL IN =       29658.8555              TOTAL IN =         633.7972

          OUT:                                     OUT:
          ----                                     ----
             STORAGE =           0.0000               STORAGE =           0.0000
       CONSTANT HEAD =           0.0000         CONSTANT HEAD =           0.0000
               WELLS =           0.0000                 WELLS =           0.0000
     HEAD DEP BOUNDS =       29659.5371       HEAD DEP BOUNDS =         633.8281

           TOTAL OUT =       29659.5371             TOTAL OUT =         633.8281

            IN - OUT =          -0.6816              IN - OUT =      -3.0823E-02

 PERCENT DISCREPANCY =          -0.00     PERCENT DISCREPANCY =          -0.00






         TIME SUMMARY AT END OF TIME STEP   23 IN STRESS PERIOD    2
                    SECONDS     MINUTES      HOURS       DAYS        YEARS
                    -----------------------------------------------------------
   TIME STEP LENGTH  86400.      1440.0      24.000      1.0000     2.73785E-03
 STRESS PERIOD TIME 1.98720E+06  33120.      552.00      23.000     6.29706E-02
         TOTAL TIME 2.07360E+06  34560.      576.00      24.000     6.57084E-02
1

 SOLVING FOR HEAD 
     4 ITERATIONS FOR TIME STEP  24 IN STRESS PERIOD    2

 OUTPUT CONTROL FOR STRESS PERIOD    2   TIME STEP   24
    SAVE HEAD FOR ALL LAYERS
    SAVE DRAWDOWN FOR ALL LAYERS
    SAVE BUDGET
    PRINT HEAD FOR ALL LAYERS
    PRINT BUDGET
 UBDSV1 SAVING "         STORAGE" ON UNIT  53 AT TIME STEP 24, STRESS PERIOD   2
 UBDSV2 SAVING "   CONSTANT HEAD" ON UNIT  53 AT TIME STEP 24, STRESS PERIOD   2
 UBDSV1 SAVING "FLOW RIGHT FACE " ON UNIT  53 AT TIME STEP 24, STRESS PERIOD   2
 UBDSV1 SAVING "FLOW FRONT FACE " ON UNIT  53 AT TIME STEP 24, STRESS PERIOD   2
1
              HEAD IN LAYER   1 AT END OF TIME STEP  24 IN STRESS PERIOD    2
  ---------------------------------------------------------------------------

            1           2           3           4           5           6           7           8           9          10
 ........................................................................................................................
   1    9.992       9.024       8.039       7.023       5.963       4.855       3.697       2.496       1.263      1.2506E-02
   2    9.992       9.024       8.039       7.023       5.963       4.855       3.697       2.496       1.263      1.2506E-02
   3    9.992       9.024       8.039       7.023       5.963       4.855       3.697       2.496       1.263      1.2506E-02
   4    9.992       9.024       8.039       7.023       5.963       4.855       3.697       2.496       1.263      1.2506E-02
   5    9.992       9.024       8.039       7.023       5.963       4.855       3.697       2.496       1.263      1.2506E-02
   6    9.992       9.024       8.039       7.023       5.963       4.855       3.697       2.496       1.263      1.2506E-02
   7    9.992       9.024       8.039       7.023       5.963       4.855       3.697       2.496       1.263      1.2506E-02
   8    9.992       9.024       8.039       7.023       5.963       4.855       3.697       2.496       1.263      1.2506E-02
   9    9.992       9.024       8.039       7.023       5.963       4.855       3.697       2.496       1.263      1.2506E-02
  10    9.992       9.024       8.039       7.023       5.963       4.855       3.697       2.496       1.263      1.2506E-02

 HEAD WILL BE SAVED ON UNIT   51 AT END OF TIME STEP   24, STRESS PERIOD    2

 DRAWDOWN WILL BE SAVED ON UNIT   52 AT END OF TIME STEP   24, STRESS PERIOD    2
1
  VOLUMETRIC BUDGET FOR ENTIRE MODEL AT END OF TIME STEP   24, STRESS PERIOD   2
  ------------------------------------------------------------------------------

     CUMULATIVE VOLUMES      L**3       RATES FOR THIS TIME STEP      L**3/T
     ------------------                 ------------------------

           IN:                                      IN:
           ---                                      ---
             STORAGE =       23817.6211               STORAGE =         141.4830
       CONSTANT HEAD =           0.0000         CONSTANT HEAD =           0.0000
               WELLS =           0.0000                 WELLS =           0.0000
     HEAD DEP BOUNDS =        6466.4844       HEAD DEP BOUNDS =         483.7680

            TOTAL IN =       30284.1055              TOTAL IN =         625.2510

          OUT:                                     OUT:
          ----                                     ----
             STORAGE =           0.0000               STORAGE =           0.0000
       CONSTANT HEAD =           0.0000         CONSTANT HEAD =           0.0000
               WELLS =           0.0000                 WELLS =           0.0000
     HEAD DEP BOUNDS =       30284.8184       HEAD DEP BOUNDS =         625.2812

           TOTAL OUT =       30284.8184             TOTAL OUT =         625.2812

            IN - OUT =          -0.7129              IN - OUT =      -3.0212E-02

 PERCENT DISCREPANCY =          -0.00     PERCENT DISCREPANCY =          -0.00






         TIME SUMMARY AT END OF TIME STEP   24 IN STRESS PERIOD    2
                    SECONDS     MINUTES      HOURS       DAYS        YEARS
                    -----------------------------------------------------------
   TIME STEP LENGTH  86400.      1440.0      24.000      1.0000     2.73785E-03
 STRESS PERIOD TIME 2.07360E+06  34560.      576.00      24.000     6.57084E-02
         TOTAL TIME 2.16000E+06  36000.      600.00      25.000     6.84463E-02
1

 SOLVING FOR HEAD 
     4 ITERATIONS FOR TIME STEP  25 IN STRESS PERIOD    2

 OUTPUT CONTROL FOR STRESS PERIOD    2   TIME STEP   25
    SAVE HEAD FOR ALL LAYERS
    SAVE DRAWDOWN FOR ALL LAYERS
    SAVE BUDGET
    PRINT HEAD FOR ALL LAYERS
    PRINT BUDGET
 UBDSV1 SAVING "         STORAGE" ON UNIT  53 AT TIME STEP 25, STRESS PERIOD   2
 UBDSV2 SAVING "   CONSTANT HEAD" ON UNIT  53 AT TIME STEP 25, STRESS PERIOD   2
 UBDSV1 SAVING "FLOW RIGHT FACE " ON UNIT  53 AT TIME STEP 25, STRESS PERIOD   2
 UBDSV1 SAVING "FLOW FRONT FACE " ON UNIT  53 AT TIME STEP 25, STRESS PERIOD   2
1
              HEAD IN LAYER   1 AT END OF TIME STEP  25 IN STRESS PERIOD    2
  ---------------------------------------------------------------------------

            1           2           3           4           5           6           7           8           9          10
 ........................................................................................................................
   1    9.992       9.009       8.011       6.984       5.919       4.811       3.658       2.467       1.248      1.2353E-02
   2    9.992       9.009       8.011       6.984       5.919       4.811       3.658       2.467       1.248      1.2353E-02
   3    9.992       9.009       8.011       6.984       5.919       4.811       3.658       2.467       1.248      1.2353E-02
   4    9.992       9.009       8.011       6.984       5.920       4.811       3.658       2.467       1.248      1.2353E-02
   5    9.992       9.009       8.011       6.984       5.920       4.811       3.658       2.467       1.248      1.2353E-02
   6    9.992       9.009       8.011       6.984       5.920       4.811       3.658       2.467       1.248      1.2353E-02
   7    9.992       9.009       8.011       6.984       5.920       4.811       3.658       2.467       1.248      1.2353E-02
   8    9.992       9.009       8.011       6.984       5.920       4.811       3.658       2.467       1.248      1.2353E-02
   9    9.992       9.009       8.011       6.984       5.919       4.811       3.658       2.467       1.248      1.2353E-02
  10    9.992       9.009       8.011       6.984       5.919       4.811       3.658       2.467       1.248      1.2353E-02

 HEAD WILL BE SAVED ON UNIT   51 AT END OF TIME STEP   25, STRESS PERIOD    2

 DRAWDOWN WILL BE SAVED ON UNIT   52 AT END OF TIME STEP   25, STRESS PERIOD    2
1
  VOLUMETRIC BUDGET FOR ENTIRE MODEL AT END OF TIME STEP   25, STRESS PERIOD   2
  ------------------------------------------------------------------------------

     CUMULATIVE VOLUMES      L**3       RATES FOR THIS TIME STEP      L**3/T
     ------------------                 ------------------------

           IN:                                      IN:
           ---                                      ---
             STORAGE =       23943.9316               STORAGE =         126.3104
       CONSTANT HEAD =           0.0000         CONSTANT HEAD =           0.0000
               WELLS =           0.0000                 WELLS =           0.0000
     HEAD DEP BOUNDS =        6957.8149       HEAD DEP BOUNDS =         491.3304

            TOTAL IN =       30901.7461              TOTAL IN =         617.6409

          OUT:                                     OUT:
          ----                                     ----
             STORAGE =           0.0000               STORAGE =           0.0000
       CONSTANT HEAD =           0.0000         CONSTANT HEAD =           0.0000
               WELLS =           0.0000                 WELLS =           0.0000
     HEAD DEP BOUNDS =       30902.4785       HEAD DEP BOUNDS =         617.6609

           TOTAL OUT =       30902.4785             TOTAL OUT =         617.6609

            IN - OUT =          -0.7324              IN - OUT =      -2.0081E-02

 PERCENT DISCREPANCY =          -0.00     PERCENT DISCREPANCY =          -0.00






         TIME SUMMARY AT END OF TIME STEP   25 IN STRESS PERIOD    2
                    SECONDS     MINUTES      HOURS       DAYS        YEARS
                    -----------------------------------------------------------
   TIME STEP LENGTH  86400.      1440.0      24.000      1.0000     2.73785E-03
 STRESS PERIOD TIME 2.16000E+06  36000.      600.00      25.000     6.84463E-02
         TOTAL TIME 2.24640E+06  37440.      624.00      26.000     7.11841E-02
1

 SOLVING FOR HEAD 
     4 ITERATIONS FOR TIME STEP  26 IN STRESS PERIOD    2

 OUTPUT CONTROL FOR STRESS PERIOD    2   TIME STEP   26
    SAVE HEAD FOR ALL LAYERS
    SAVE DRAWDOWN FOR ALL LAYERS
    SAVE BUDGET
    PRINT HEAD FOR ALL LAYERS
    PRINT BUDGET
 UBDSV1 SAVING "         STORAGE" ON UNIT  53 AT TIME STEP 26, STRESS PERIOD   2
 UBDSV2 SAVING "   CONSTANT HEAD" ON UNIT  53 AT TIME STEP 26, STRESS PERIOD   2
 UBDSV1 SAVING "FLOW RIGHT FACE " ON UNIT  53 AT TIME STEP 26, STRESS PERIOD   2
 UBDSV1 SAVING "FLOW FRONT FACE " ON UNIT  53 AT TIME STEP 26, STRESS PERIOD   2
1
              HEAD IN LAYER   1 AT END OF TIME STEP  26 IN STRESS PERIOD    2
  ---------------------------------------------------------------------------

            1           2           3           4           5           6           7           8           9          10
 ........................................................................................................................
   1    9.992       8.995       7.986       6.950       5.880       4.772       3.624       2.442       1.234      1.2217E-02
   2    9.992       8.995       7.986       6.950       5.880       4.772       3.624       2.442       1.234      1.2217E-02
   3    9.992       8.995       7.986       6.950       5.880       4.772       3.624       2.442       1.234      1.2217E-02
   4    9.992       8.995       7.986       6.950       5.880       4.772       3.624       2.442       1.234      1.2217E-02
   5    9.992       8.995       7.986       6.950       5.880       4.772       3.624       2.442       1.234      1.2217E-02
   6    9.992       8.995       7.986       6.950       5.880       4.772       3.624       2.442       1.234      1.2217E-02
   7    9.992       8.995       7.986       6.950       5.880       4.772       3.624       2.442       1.234      1.2217E-02
   8    9.992       8.995       7.986       6.950       5.880       4.772       3.624       2.442       1.234      1.2217E-02
   9    9.992       8.995       7.986       6.950       5.880       4.772       3.624       2.442       1.234      1.2217E-02
  10    9.992       8.995       7.986       6.950       5.880       4.772       3.624       2.442       1.234      1.2217E-02

 HEAD WILL BE SAVED ON UNIT   51 AT END OF TIME STEP   26, STRESS PERIOD    2

 DRAWDOWN WILL BE SAVED ON UNIT   52 AT END OF TIME STEP   26, STRESS PERIOD    2
1
  VOLUMETRIC BUDGET FOR ENTIRE MODEL AT END OF TIME STEP   26, STRESS PERIOD   2
  ------------------------------------------------------------------------------

     CUMULATIVE VOLUMES      L**3       RATES FOR THIS TIME STEP      L**3/T
     ------------------                 ------------------------

           IN:                                      IN:
           ---                                      ---
             STORAGE =       24056.6953               STORAGE =         112.7640
       CONSTANT HEAD =           0.0000         CONSTANT HEAD =           0.0000
               WELLS =           0.0000                 WELLS =           0.0000
     HEAD DEP BOUNDS =        7455.9116       HEAD DEP BOUNDS =         498.0968

            TOTAL IN =       31512.6074              TOTAL IN =         610.8608

          OUT:                                     OUT:
          ----                                     ----
             STORAGE =           0.0000               STORAGE =           0.0000
       CONSTANT HEAD =           0.0000         CONSTANT HEAD =           0.0000
               WELLS =           0.0000                 WELLS =           0.0000
     HEAD DEP BOUNDS =       31513.3438       HEAD DEP BOUNDS =         610.8647

           TOTAL OUT =       31513.3438             TOTAL OUT =         610.8647

            IN - OUT =          -0.7363              IN - OUT =      -3.9062E-03

 PERCENT DISCREPANCY =          -0.00     PERCENT DISCREPANCY =          -0.00






         TIME SUMMARY AT END OF TIME STEP   26 IN STRESS PERIOD    2
                    SECONDS     MINUTES      HOURS       DAYS        YEARS
                    -----------------------------------------------------------
   TIME STEP LENGTH  86400.      1440.0      24.000      1.0000     2.73785E-03
 STRESS PERIOD TIME 2.24640E+06  37440.      624.00      26.000     7.11841E-02
         TOTAL TIME 2.33280E+06  38880.      648.00      27.000     7.39220E-02
1

 SOLVING FOR HEAD 
     4 ITERATIONS FOR TIME STEP  27 IN STRESS PERIOD    2

 OUTPUT CONTROL FOR STRESS PERIOD    2   TIME STEP   27
    SAVE HEAD FOR ALL LAYERS
    SAVE DRAWDOWN FOR ALL LAYERS
    SAVE BUDGET
    PRINT HEAD FOR ALL LAYERS
    PRINT BUDGET
 UBDSV1 SAVING "         STORAGE" ON UNIT  53 AT TIME STEP 27, STRESS PERIOD   2
 UBDSV2 SAVING "   CONSTANT HEAD" ON UNIT  53 AT TIME STEP 27, STRESS PERIOD   2
 UBDSV1 SAVING "FLOW RIGHT FACE " ON UNIT  53 AT TIME STEP 27, STRESS PERIOD   2
 UBDSV1 SAVING "FLOW FRONT FACE " ON UNIT  53 AT TIME STEP 27, STRESS PERIOD   2
1
              HEAD IN LAYER   1 AT END OF TIME STEP  27 IN STRESS PERIOD    2
  ---------------------------------------------------------------------------

            1           2           3           4           5           6           7           8           9          10
 ........................................................................................................................
   1    9.992       8.983       7.963       6.919       5.846       4.737       3.593       2.419       1.222      1.2096E-02
   2    9.992       8.983       7.963       6.920       5.846       4.737       3.593       2.419       1.222      1.2096E-02
   3    9.992       8.983       7.963       6.920       5.846       4.737       3.593       2.419       1.222      1.2096E-02
   4    9.992       8.983       7.963       6.920       5.846       4.737       3.593       2.419       1.222      1.2096E-02
   5    9.992       8.983       7.963       6.920       5.846       4.737       3.593       2.419       1.222      1.2096E-02
   6    9.992       8.983       7.963       6.920       5.846       4.737       3.593       2.419       1.222      1.2096E-02
   7    9.992       8.983       7.963       6.920       5.846       4.737       3.593       2.419       1.222      1.2096E-02
   8    9.992       8.983       7.963       6.919       5.846       4.737       3.593       2.419       1.222      1.2096E-02
   9    9.992       8.983       7.963       6.919       5.846       4.737       3.593       2.419       1.222      1.2096E-02
  10    9.992       8.983       7.963       6.919       5.846       4.737       3.593       2.419       1.222      1.2096E-02

 HEAD WILL BE SAVED ON UNIT   51 AT END OF TIME STEP   27, STRESS PERIOD    2

 DRAWDOWN WILL BE SAVED ON UNIT   52 AT END OF TIME STEP   27, STRESS PERIOD    2
1
  VOLUMETRIC BUDGET FOR ENTIRE MODEL AT END OF TIME STEP   27, STRESS PERIOD   2
  ------------------------------------------------------------------------------

     CUMULATIVE VOLUMES      L**3       RATES FOR THIS TIME STEP      L**3/T
     ------------------                 ------------------------

           IN:                                      IN:
           ---                                      ---
             STORAGE =       24157.3652               STORAGE =         100.6699
       CONSTANT HEAD =           0.0000         CONSTANT HEAD =           0.0000
               WELLS =           0.0000                 WELLS =           0.0000
     HEAD DEP BOUNDS =        7960.0234       HEAD DEP BOUNDS =         504.1118

            TOTAL IN =       32117.3887              TOTAL IN =         604.7817

          OUT:                                     OUT:
          ----                                     ----
             STORAGE =           0.0000               STORAGE =           0.0000
       CONSTANT HEAD =           0.0000         CONSTANT HEAD =           0.0000
               WELLS =           0.0000                 WELLS =           0.0000
     HEAD DEP BOUNDS =       32118.1465       HEAD DEP BOUNDS =         604.8020

           TOTAL OUT =       32118.1465             TOTAL OUT =         604.8020

            IN - OUT =          -0.7578              IN - OUT =      -2.0325E-02

 PERCENT DISCREPANCY =          -0.00     PERCENT DISCREPANCY =          -0.00






         TIME SUMMARY AT END OF TIME STEP   27 IN STRESS PERIOD    2
                    SECONDS     MINUTES      HOURS       DAYS        YEARS
                    -----------------------------------------------------------
   TIME STEP LENGTH  86400.      1440.0      24.000      1.0000     2.73785E-03
 STRESS PERIOD TIME 2.33280E+06  38880.      648.00      27.000     7.39220E-02
         TOTAL TIME 2.41920E+06  40320.      672.00      28.000     7.66598E-02
1

 SOLVING FOR HEAD 
     4 ITERATIONS FOR TIME STEP  28 IN STRESS PERIOD    2

 OUTPUT CONTROL FOR STRESS PERIOD    2   TIME STEP   28
    SAVE HEAD FOR ALL LAYERS
    SAVE DRAWDOWN FOR ALL LAYERS
    SAVE BUDGET
    PRINT HEAD FOR ALL LAYERS
    PRINT BUDGET
 UBDSV1 SAVING "         STORAGE" ON UNIT  53 AT TIME STEP 28, STRESS PERIOD   2
 UBDSV2 SAVING "   CONSTANT HEAD" ON UNIT  53 AT TIME STEP 28, STRESS PERIOD   2
 UBDSV1 SAVING "FLOW RIGHT FACE " ON UNIT  53 AT TIME STEP 28, STRESS PERIOD   2
 UBDSV1 SAVING "FLOW FRONT FACE " ON UNIT  53 AT TIME STEP 28, STRESS PERIOD   2
1
              HEAD IN LAYER   1 AT END OF TIME STEP  28 IN STRESS PERIOD    2
  ---------------------------------------------------------------------------

            1           2           3           4           5           6           7           8           9          10
 ........................................................................................................................
   1    9.992       8.972       7.942       6.892       5.814       4.706       3.566       2.398       1.211      1.1988E-02
   2    9.992       8.972       7.942       6.892       5.814       4.706       3.566       2.398       1.211      1.1988E-02
   3    9.992       8.972       7.942       6.892       5.814       4.706       3.566       2.398       1.211      1.1988E-02
   4    9.992       8.972       7.942       6.892       5.814       4.706       3.566       2.398       1.211      1.1988E-02
   5    9.992       8.972       7.942       6.892       5.814       4.706       3.566       2.398       1.211      1.1988E-02
   6    9.992       8.972       7.942       6.892       5.814       4.706       3.566       2.398       1.211      1.1988E-02
   7    9.992       8.972       7.942       6.892       5.814       4.706       3.566       2.398       1.211      1.1988E-02
   8    9.992       8.972       7.942       6.892       5.814       4.706       3.566       2.398       1.211      1.1988E-02
   9    9.992       8.972       7.942       6.892       5.814       4.706       3.566       2.398       1.211      1.1988E-02
  10    9.992       8.972       7.942       6.892       5.814       4.706       3.566       2.398       1.211      1.1988E-02

 HEAD WILL BE SAVED ON UNIT   51 AT END OF TIME STEP   28, STRESS PERIOD    2

 DRAWDOWN WILL BE SAVED ON UNIT   52 AT END OF TIME STEP   28, STRESS PERIOD    2
1
  VOLUMETRIC BUDGET FOR ENTIRE MODEL AT END OF TIME STEP   28, STRESS PERIOD   2
  ------------------------------------------------------------------------------

     CUMULATIVE VOLUMES      L**3       RATES FOR THIS TIME STEP      L**3/T
     ------------------                 ------------------------

           IN:                                      IN:
           ---                                      ---
             STORAGE =       24247.2402               STORAGE =          89.8740
       CONSTANT HEAD =           0.0000         CONSTANT HEAD =           0.0000
               WELLS =           0.0000                 WELLS =           0.0000
     HEAD DEP BOUNDS =        8469.5508       HEAD DEP BOUNDS =         509.5275

            TOTAL IN =       32716.7910              TOTAL IN =         599.4016

          OUT:                                     OUT:
          ----                                     ----
             STORAGE =           0.0000               STORAGE =           0.0000
       CONSTANT HEAD =           0.0000         CONSTANT HEAD =           0.0000
               WELLS =           0.0000                 WELLS =           0.0000
     HEAD DEP BOUNDS =       32717.5391       HEAD DEP BOUNDS =         599.3926

           TOTAL OUT =       32717.5391             TOTAL OUT =         599.3926

            IN - OUT =          -0.7480              IN - OUT =       8.9722E-03

 PERCENT DISCREPANCY =          -0.00     PERCENT DISCREPANCY =           0.00






         TIME SUMMARY AT END OF TIME STEP   28 IN STRESS PERIOD    2
                    SECONDS     MINUTES      HOURS       DAYS        YEARS
                    -----------------------------------------------------------
   TIME STEP LENGTH  86400.      1440.0      24.000      1.0000     2.73785E-03
 STRESS PERIOD TIME 2.41920E+06  40320.      672.00      28.000     7.66598E-02
         TOTAL TIME 2.50560E+06  41760.      696.00      29.000     7.93977E-02
1

 SOLVING FOR HEAD 
     4 ITERATIONS FOR TIME STEP  29 IN STRESS PERIOD    2

 OUTPUT CONTROL FOR STRESS PERIOD    2   TIME STEP   29
    SAVE HEAD FOR ALL LAYERS
    SAVE DRAWDOWN FOR ALL LAYERS
    SAVE BUDGET
    PRINT HEAD FOR ALL LAYERS
    PRINT BUDGET
 UBDSV1 SAVING "         STORAGE" ON UNIT  53 AT TIME STEP 29, STRESS PERIOD   2
 UBDSV2 SAVING "   CONSTANT HEAD" ON UNIT  53 AT TIME STEP 29, STRESS PERIOD   2
 UBDSV1 SAVING "FLOW RIGHT FACE " ON UNIT  53 AT TIME STEP 29, STRESS PERIOD   2
 UBDSV1 SAVING "FLOW FRONT FACE " ON UNIT  53 AT TIME STEP 29, STRESS PERIOD   2
1
              HEAD IN LAYER   1 AT END OF TIME STEP  29 IN STRESS PERIOD    2
  ---------------------------------------------------------------------------

            1           2           3           4           5           6           7           8           9          10
 ........................................................................................................................
   1    9.991       8.963       7.924       6.868       5.787       4.678       3.541       2.380       1.201      1.1891E-02
   2    9.991       8.963       7.924       6.868       5.787       4.678       3.541       2.380       1.201      1.1891E-02
   3    9.991       8.963       7.924       6.868       5.787       4.678       3.541       2.380       1.201      1.1891E-02
   4    9.991       8.963       7.924       6.868       5.787       4.678       3.541       2.380       1.201      1.1891E-02
   5    9.991       8.963       7.924       6.868       5.787       4.678       3.541       2.380       1.201      1.1891E-02
   6    9.991       8.963       7.924       6.868       5.787       4.678       3.541       2.380       1.201      1.1891E-02
   7    9.991       8.963       7.924       6.868       5.787       4.678       3.541       2.380       1.201      1.1891E-02
   8    9.991       8.963       7.924       6.868       5.787       4.678       3.541       2.380       1.201      1.1891E-02
   9    9.991       8.963       7.924       6.868       5.787       4.678       3.541       2.380       1.201      1.1891E-02
  10    9.991       8.963       7.924       6.868       5.787       4.678       3.541       2.380       1.201      1.1891E-02

 HEAD WILL BE SAVED ON UNIT   51 AT END OF TIME STEP   29, STRESS PERIOD    2

 DRAWDOWN WILL BE SAVED ON UNIT   52 AT END OF TIME STEP   29, STRESS PERIOD    2
1
  VOLUMETRIC BUDGET FOR ENTIRE MODEL AT END OF TIME STEP   29, STRESS PERIOD   2
  ------------------------------------------------------------------------------

     CUMULATIVE VOLUMES      L**3       RATES FOR THIS TIME STEP      L**3/T
     ------------------                 ------------------------

           IN:                                      IN:
           ---                                      ---
             STORAGE =       24327.4746               STORAGE =          80.2348
       CONSTANT HEAD =           0.0000         CONSTANT HEAD =           0.0000
               WELLS =           0.0000                 WELLS =           0.0000
     HEAD DEP BOUNDS =        8983.8848       HEAD DEP BOUNDS =         514.3344

            TOTAL IN =       33311.3594              TOTAL IN =         594.5691

          OUT:                                     OUT:
          ----                                     ----
             STORAGE =           0.0000               STORAGE =           0.0000
       CONSTANT HEAD =           0.0000         CONSTANT HEAD =           0.0000
               WELLS =           0.0000                 WELLS =           0.0000
     HEAD DEP BOUNDS =       33312.1055       HEAD DEP BOUNDS =         594.5655

           TOTAL OUT =       33312.1055             TOTAL OUT =         594.5655

            IN - OUT =          -0.7461              IN - OUT =       3.6011E-03

 PERCENT DISCREPANCY =          -0.00     PERCENT DISCREPANCY =           0.00






         TIME SUMMARY AT END OF TIME STEP   29 IN STRESS PERIOD    2
                    SECONDS     MINUTES      HOURS       DAYS        YEARS
                    -----------------------------------------------------------
   TIME STEP LENGTH  86400.      1440.0      24.000      1.0000     2.73785E-03
 STRESS PERIOD TIME 2.50560E+06  41760.      696.00      29.000     7.93977E-02
         TOTAL TIME 2.59200E+06  43200.      720.00      30.000     8.21355E-02
1

 SOLVING FOR HEAD 
     3 ITERATIONS FOR TIME STEP  30 IN STRESS PERIOD    2

 OUTPUT CONTROL FOR STRESS PERIOD    2   TIME STEP   30
    SAVE HEAD FOR ALL LAYERS
    SAVE DRAWDOWN FOR ALL LAYERS
    SAVE BUDGET
    PRINT HEAD FOR ALL LAYERS
    PRINT BUDGET
 UBDSV1 SAVING "         STORAGE" ON UNIT  53 AT TIME STEP 30, STRESS PERIOD   2
 UBDSV2 SAVING "   CONSTANT HEAD" ON UNIT  53 AT TIME STEP 30, STRESS PERIOD   2
 UBDSV1 SAVING "FLOW RIGHT FACE " ON UNIT  53 AT TIME STEP 30, STRESS PERIOD   2
 UBDSV1 SAVING "FLOW FRONT FACE " ON UNIT  53 AT TIME STEP 30, STRESS PERIOD   2
1
              HEAD IN LAYER   1 AT END OF TIME STEP  30 IN STRESS PERIOD    2
  ---------------------------------------------------------------------------

            1           2           3           4           5           6           7           8           9          10
 ........................................................................................................................
   1    9.991       8.954       7.908       6.846       5.762       4.653       3.519       2.364       1.192      1.1806E-02
   2    9.991       8.954       7.908       6.846       5.762       4.653       3.520       2.364       1.192      1.1806E-02
   3    9.991       8.954       7.908       6.846       5.762       4.653       3.520       2.364       1.192      1.1806E-02
   4    9.991       8.954       7.908       6.846       5.762       4.653       3.520       2.364       1.192      1.1806E-02
   5    9.991       8.954       7.908       6.846       5.762       4.653       3.520       2.364       1.192      1.1806E-02
   6    9.991       8.954       7.908       6.846       5.762       4.653       3.520       2.364       1.192      1.1806E-02
   7    9.991       8.954       7.908       6.846       5.762       4.653       3.520       2.364       1.192      1.1806E-02
   8    9.991       8.954       7.908       6.846       5.762       4.653       3.520       2.364       1.192      1.1806E-02
   9    9.991       8.954       7.908       6.846       5.762       4.653       3.519       2.364       1.192      1.1806E-02
  10    9.991       8.954       7.908       6.846       5.762       4.653       3.519       2.364       1.192      1.1805E-02

 HEAD WILL BE SAVED ON UNIT   51 AT END OF TIME STEP   30, STRESS PERIOD    2

 DRAWDOWN WILL BE SAVED ON UNIT   52 AT END OF TIME STEP   30, STRESS PERIOD    2
1
  VOLUMETRIC BUDGET FOR ENTIRE MODEL AT END OF TIME STEP   30, STRESS PERIOD   2
  ------------------------------------------------------------------------------

     CUMULATIVE VOLUMES      L**3       RATES FOR THIS TIME STEP      L**3/T
     ------------------                 ------------------------

           IN:                                      IN:
           ---                                      ---
             STORAGE =       24398.9160               STORAGE =          71.4407
       CONSTANT HEAD =           0.0000         CONSTANT HEAD =           0.0000
               WELLS =           0.0000                 WELLS =           0.0000
     HEAD DEP BOUNDS =        9502.5049       HEAD DEP BOUNDS =         518.6200

            TOTAL IN =       33901.4219              TOTAL IN =         590.0607

          OUT:                                     OUT:
          ----                                     ----
             STORAGE =           0.0000               STORAGE =           0.0000
       CONSTANT HEAD =           0.0000         CONSTANT HEAD =           0.0000
               WELLS =           0.0000                 WELLS =           0.0000
     HEAD DEP BOUNDS =       33902.3906       HEAD DEP BOUNDS =         590.2835

           TOTAL OUT =       33902.3906             TOTAL OUT =         590.2835

            IN - OUT =          -0.9688              IN - OUT =          -0.2228

 PERCENT DISCREPANCY =          -0.00     PERCENT DISCREPANCY =          -0.04






         TIME SUMMARY AT END OF TIME STEP   30 IN STRESS PERIOD    2
                    SECONDS     MINUTES      HOURS       DAYS        YEARS
                    -----------------------------------------------------------
   TIME STEP LENGTH  86400.      1440.0      24.000      1.0000     2.73785E-03
 STRESS PERIOD TIME 2.59200E+06  43200.      720.00      30.000     8.21355E-02
         TOTAL TIME 2.67840E+06  44640.      744.00      31.000     8.48734E-02
1

 SOLVING FOR HEAD 
     3 ITERATIONS FOR TIME STEP  31 IN STRESS PERIOD    2

 OUTPUT CONTROL FOR STRESS PERIOD    2   TIME STEP   31
    SAVE HEAD FOR ALL LAYERS
    SAVE DRAWDOWN FOR ALL LAYERS
    SAVE BUDGET
    PRINT HEAD FOR ALL LAYERS
    PRINT BUDGET
 UBDSV1 SAVING "         STORAGE" ON UNIT  53 AT TIME STEP 31, STRESS PERIOD   2
 UBDSV2 SAVING "   CONSTANT HEAD" ON UNIT  53 AT TIME STEP 31, STRESS PERIOD   2
 UBDSV1 SAVING "FLOW RIGHT FACE " ON UNIT  53 AT TIME STEP 31, STRESS PERIOD   2
 UBDSV1 SAVING "FLOW FRONT FACE " ON UNIT  53 AT TIME STEP 31, STRESS PERIOD   2
1
              HEAD IN LAYER   1 AT END OF TIME STEP  31 IN STRESS PERIOD    2
  ---------------------------------------------------------------------------

            1           2           3           4           5           6           7           8           9          10
 ........................................................................................................................
   1    9.991       8.946       7.894       6.826       5.740       4.631       3.500       2.350       1.185      1.1729E-02
   2    9.991       8.946       7.894       6.826       5.740       4.631       3.500       2.350       1.185      1.1729E-02
   3    9.991       8.946       7.894       6.827       5.740       4.631       3.500       2.350       1.185      1.1729E-02
   4    9.991       8.946       7.894       6.827       5.740       4.631       3.500       2.350       1.185      1.1729E-02
   5    9.991       8.946       7.894       6.827       5.740       4.631       3.500       2.350       1.185      1.1729E-02
   6    9.991       8.946       7.894       6.827       5.740       4.631       3.500       2.350       1.185      1.1729E-02
   7    9.991       8.946       7.894       6.827       5.740       4.631       3.500       2.350       1.185      1.1729E-02
   8    9.991       8.946       7.894       6.827       5.740       4.631       3.500       2.350       1.185      1.1729E-02
   9    9.991       8.946       7.894       6.827       5.740       4.631       3.500       2.350       1.185      1.1729E-02
  10    9.991       8.946       7.894       6.826       5.740       4.631       3.500       2.350       1.184      1.1728E-02

 HEAD WILL BE SAVED ON UNIT   51 AT END OF TIME STEP   31, STRESS PERIOD    2

 DRAWDOWN WILL BE SAVED ON UNIT   52 AT END OF TIME STEP   31, STRESS PERIOD    2
1
  VOLUMETRIC BUDGET FOR ENTIRE MODEL AT END OF TIME STEP   31, STRESS PERIOD   2
  ------------------------------------------------------------------------------

     CUMULATIVE VOLUMES      L**3       RATES FOR THIS TIME STEP      L**3/T
     ------------------                 ------------------------

           IN:                                      IN:
           ---                                      ---
             STORAGE =       24462.7168               STORAGE =          63.8000
       CONSTANT HEAD =           0.0000         CONSTANT HEAD =           0.0000
               WELLS =           0.0000                 WELLS =           0.0000
     HEAD DEP BOUNDS =       10024.9580       HEAD DEP BOUNDS =         522.4528

            TOTAL IN =       34487.6758              TOTAL IN =         586.2528

          OUT:                                     OUT:
          ----                                     ----
             STORAGE =           0.0000               STORAGE =           0.0000
       CONSTANT HEAD =           0.0000         CONSTANT HEAD =           0.0000
               WELLS =           0.0000                 WELLS =           0.0000
     HEAD DEP BOUNDS =       34488.8398       HEAD DEP BOUNDS =         586.4474

           TOTAL OUT =       34488.8398             TOTAL OUT =         586.4474

            IN - OUT =          -1.1641              IN - OUT =          -0.1946

 PERCENT DISCREPANCY =          -0.00     PERCENT DISCREPANCY =          -0.03






         TIME SUMMARY AT END OF TIME STEP   31 IN STRESS PERIOD    2
                    SECONDS     MINUTES      HOURS       DAYS        YEARS
                    -----------------------------------------------------------
   TIME STEP LENGTH  86400.      1440.0      24.000      1.0000     2.73785E-03
 STRESS PERIOD TIME 2.67840E+06  44640.      744.00      31.000     8.48734E-02
         TOTAL TIME 2.76480E+06  46080.      768.00      32.000     8.76112E-02
1

 SOLVING FOR HEAD 
     3 ITERATIONS FOR TIME STEP  32 IN STRESS PERIOD    2

 OUTPUT CONTROL FOR STRESS PERIOD    2   TIME STEP   32
    SAVE HEAD FOR ALL LAYERS
    SAVE DRAWDOWN FOR ALL LAYERS
    SAVE BUDGET
    PRINT HEAD FOR ALL LAYERS
    PRINT BUDGET
 UBDSV1 SAVING "         STORAGE" ON UNIT  53 AT TIME STEP 32, STRESS PERIOD   2
 UBDSV2 SAVING "   CONSTANT HEAD" ON UNIT  53 AT TIME STEP 32, STRESS PERIOD   2
 UBDSV1 SAVING "FLOW RIGHT FACE " ON UNIT  53 AT TIME STEP 32, STRESS PERIOD   2
 UBDSV1 SAVING "FLOW FRONT FACE " ON UNIT  53 AT TIME STEP 32, STRESS PERIOD   2
1
              HEAD IN LAYER   1 AT END OF TIME STEP  32 IN STRESS PERIOD    2
  ---------------------------------------------------------------------------

            1           2           3           4           5           6           7           8           9          10
 ........................................................................................................................
   1    9.991       8.939       7.881       6.809       5.720       4.611       3.483       2.337       1.178      1.1661E-02
   2    9.991       8.939       7.881       6.809       5.720       4.611       3.483       2.337       1.178      1.1661E-02
   3    9.991       8.939       7.881       6.809       5.720       4.611       3.483       2.337       1.178      1.1661E-02
   4    9.991       8.939       7.881       6.809       5.720       4.611       3.483       2.337       1.178      1.1660E-02
   5    9.991       8.939       7.881       6.809       5.720       4.611       3.483       2.337       1.178      1.1660E-02
   6    9.991       8.939       7.881       6.809       5.720       4.611       3.483       2.337       1.178      1.1660E-02
   7    9.991       8.939       7.881       6.809       5.720       4.611       3.483       2.337       1.178      1.1660E-02
   8    9.991       8.939       7.881       6.809       5.720       4.611       3.483       2.337       1.178      1.1660E-02
   9    9.991       8.939       7.881       6.809       5.720       4.611       3.483       2.337       1.178      1.1660E-02
  10    9.991       8.939       7.881       6.809       5.720       4.611       3.483       2.337       1.178      1.1660E-02

 HEAD WILL BE SAVED ON UNIT   51 AT END OF TIME STEP   32, STRESS PERIOD    2

 DRAWDOWN WILL BE SAVED ON UNIT   52 AT END OF TIME STEP   32, STRESS PERIOD    2
1
  VOLUMETRIC BUDGET FOR ENTIRE MODEL AT END OF TIME STEP   32, STRESS PERIOD   2
  ------------------------------------------------------------------------------

     CUMULATIVE VOLUMES      L**3       RATES FOR THIS TIME STEP      L**3/T
     ------------------                 ------------------------

           IN:                                      IN:
           ---                                      ---
             STORAGE =       24519.6934               STORAGE =          56.9757
       CONSTANT HEAD =           0.0000         CONSTANT HEAD =           0.0000
               WELLS =           0.0000                 WELLS =           0.0000
     HEAD DEP BOUNDS =       10550.7998       HEAD DEP BOUNDS =         525.8417

            TOTAL IN =       35070.4922              TOTAL IN =         582.8174

          OUT:                                     OUT:
          ----                                     ----
             STORAGE =           0.0000               STORAGE =           0.0000
       CONSTANT HEAD =           0.0000         CONSTANT HEAD =           0.0000
               WELLS =           0.0000                 WELLS =           0.0000
     HEAD DEP BOUNDS =       35071.8633       HEAD DEP BOUNDS =         583.0216

           TOTAL OUT =       35071.8633             TOTAL OUT =         583.0216

            IN - OUT =          -1.3711              IN - OUT =          -0.2042

 PERCENT DISCREPANCY =          -0.00     PERCENT DISCREPANCY =          -0.04






         TIME SUMMARY AT END OF TIME STEP   32 IN STRESS PERIOD    2
                    SECONDS     MINUTES      HOURS       DAYS        YEARS
                    -----------------------------------------------------------
   TIME STEP LENGTH  86400.      1440.0      24.000      1.0000     2.73785E-03
 STRESS PERIOD TIME 2.76480E+06  46080.      768.00      32.000     8.76112E-02
         TOTAL TIME 2.85120E+06  47520.      792.00      33.000     9.03491E-02
1

 SOLVING FOR HEAD 
     3 ITERATIONS FOR TIME STEP  33 IN STRESS PERIOD    2

 OUTPUT CONTROL FOR STRESS PERIOD    2   TIME STEP   33
    SAVE HEAD FOR ALL LAYERS
    SAVE DRAWDOWN FOR ALL LAYERS
    SAVE BUDGET
    PRINT HEAD FOR ALL LAYERS
    PRINT BUDGET
 UBDSV1 SAVING "         STORAGE" ON UNIT  53 AT TIME STEP 33, STRESS PERIOD   2
 UBDSV2 SAVING "   CONSTANT HEAD" ON UNIT  53 AT TIME STEP 33, STRESS PERIOD   2
 UBDSV1 SAVING "FLOW RIGHT FACE " ON UNIT  53 AT TIME STEP 33, STRESS PERIOD   2
 UBDSV1 SAVING "FLOW FRONT FACE " ON UNIT  53 AT TIME STEP 33, STRESS PERIOD   2
1
              HEAD IN LAYER   1 AT END OF TIME STEP  33 IN STRESS PERIOD    2
  ---------------------------------------------------------------------------

            1           2           3           4           5           6           7           8           9          10
 ........................................................................................................................
   1    9.991       8.933       7.869       6.794       5.702       4.594       3.467       2.325       1.171      1.1600E-02
   2    9.991       8.933       7.869       6.794       5.702       4.594       3.467       2.325       1.171      1.1600E-02
   3    9.991       8.933       7.869       6.794       5.702       4.594       3.467       2.325       1.171      1.1599E-02
   4    9.991       8.933       7.869       6.794       5.703       4.594       3.467       2.325       1.171      1.1599E-02
   5    9.991       8.933       7.869       6.794       5.703       4.594       3.467       2.325       1.171      1.1599E-02
   6    9.991       8.933       7.869       6.794       5.703       4.594       3.467       2.325       1.171      1.1599E-02
   7    9.991       8.933       7.869       6.794       5.703       4.594       3.467       2.325       1.171      1.1599E-02
   8    9.991       8.933       7.869       6.794       5.703       4.594       3.467       2.325       1.171      1.1599E-02
   9    9.991       8.933       7.869       6.794       5.702       4.594       3.467       2.325       1.171      1.1599E-02
  10    9.991       8.933       7.869       6.794       5.702       4.594       3.467       2.325       1.171      1.1599E-02

 HEAD WILL BE SAVED ON UNIT   51 AT END OF TIME STEP   33, STRESS PERIOD    2

 DRAWDOWN WILL BE SAVED ON UNIT   52 AT END OF TIME STEP   33, STRESS PERIOD    2
1
  VOLUMETRIC BUDGET FOR ENTIRE MODEL AT END OF TIME STEP   33, STRESS PERIOD   2
  ------------------------------------------------------------------------------

     CUMULATIVE VOLUMES      L**3       RATES FOR THIS TIME STEP      L**3/T
     ------------------                 ------------------------

           IN:                                      IN:
           ---                                      ---
             STORAGE =       24570.5762               STORAGE =          50.8819
       CONSTANT HEAD =           0.0000         CONSTANT HEAD =           0.0000
               WELLS =           0.0000                 WELLS =           0.0000
     HEAD DEP BOUNDS =       11079.7070       HEAD DEP BOUNDS =         528.9070

            TOTAL IN =       35650.2812              TOTAL IN =         579.7890

          OUT:                                     OUT:
          ----                                     ----
             STORAGE =           0.0000               STORAGE =           0.0000
       CONSTANT HEAD =           0.0000         CONSTANT HEAD =           0.0000
               WELLS =           0.0000                 WELLS =           0.0000
     HEAD DEP BOUNDS =       35651.8242       HEAD DEP BOUNDS =         579.9623

           TOTAL OUT =       35651.8242             TOTAL OUT =         579.9623

            IN - OUT =          -1.5430              IN - OUT =          -0.1733

 PERCENT DISCREPANCY =          -0.00     PERCENT DISCREPANCY =          -0.03






         TIME SUMMARY AT END OF TIME STEP   33 IN STRESS PERIOD    2
                    SECONDS     MINUTES      HOURS       DAYS        YEARS
                    -----------------------------------------------------------
   TIME STEP LENGTH  86400.      1440.0      24.000      1.0000     2.73785E-03
 STRESS PERIOD TIME 2.85120E+06  47520.      792.00      33.000     9.03491E-02
         TOTAL TIME 2.93760E+06  48960.      816.00      34.000     9.30869E-02
1

 SOLVING FOR HEAD 
     3 ITERATIONS FOR TIME STEP  34 IN STRESS PERIOD    2

 OUTPUT CONTROL FOR STRESS PERIOD    2   TIME STEP   34
    SAVE HEAD FOR ALL LAYERS
    SAVE DRAWDOWN FOR ALL LAYERS
    SAVE BUDGET
    PRINT HEAD FOR ALL LAYERS
    PRINT BUDGET
 UBDSV1 SAVING "         STORAGE" ON UNIT  53 AT TIME STEP 34, STRESS PERIOD   2
 UBDSV2 SAVING "   CONSTANT HEAD" ON UNIT  53 AT TIME STEP 34, STRESS PERIOD   2
 UBDSV1 SAVING "FLOW RIGHT FACE " ON UNIT  53 AT TIME STEP 34, STRESS PERIOD   2
 UBDSV1 SAVING "FLOW FRONT FACE " ON UNIT  53 AT TIME STEP 34, STRESS PERIOD   2
1
              HEAD IN LAYER   1 AT END OF TIME STEP  34 IN STRESS PERIOD    2
  ---------------------------------------------------------------------------

            1           2           3           4           5           6           7           8           9          10
 ........................................................................................................................
   1    9.991       8.928       7.859       6.780       5.687       4.578       3.453       2.315       1.166      1.1545E-02
   2    9.991       8.928       7.859       6.780       5.687       4.578       3.453       2.315       1.166      1.1545E-02
   3    9.991       8.928       7.859       6.780       5.687       4.578       3.453       2.315       1.166      1.1545E-02
   4    9.991       8.928       7.859       6.780       5.687       4.578       3.453       2.315       1.166      1.1545E-02
   5    9.991       8.928       7.859       6.780       5.687       4.578       3.453       2.315       1.166      1.1545E-02
   6    9.991       8.928       7.859       6.780       5.687       4.578       3.453       2.315       1.166      1.1545E-02
   7    9.991       8.928       7.859       6.780       5.687       4.578       3.453       2.315       1.166      1.1545E-02
   8    9.991       8.928       7.859       6.780       5.687       4.578       3.453       2.315       1.166      1.1544E-02
   9    9.991       8.928       7.859       6.780       5.687       4.578       3.453       2.315       1.166      1.1544E-02
  10    9.991       8.928       7.859       6.780       5.687       4.578       3.453       2.315       1.166      1.1544E-02

 HEAD WILL BE SAVED ON UNIT   51 AT END OF TIME STEP   34, STRESS PERIOD    2

 DRAWDOWN WILL BE SAVED ON UNIT   52 AT END OF TIME STEP   34, STRESS PERIOD    2
1
  VOLUMETRIC BUDGET FOR ENTIRE MODEL AT END OF TIME STEP   34, STRESS PERIOD   2
  ------------------------------------------------------------------------------

     CUMULATIVE VOLUMES      L**3       RATES FOR THIS TIME STEP      L**3/T
     ------------------                 ------------------------

           IN:                                      IN:
           ---                                      ---
             STORAGE =       24616.0156               STORAGE =          45.4395
       CONSTANT HEAD =           0.0000         CONSTANT HEAD =           0.0000
               WELLS =           0.0000                 WELLS =           0.0000
     HEAD DEP BOUNDS =       11611.3555       HEAD DEP BOUNDS =         531.6489

            TOTAL IN =       36227.3711              TOTAL IN =         577.0885

          OUT:                                     OUT:
          ----                                     ----
             STORAGE =           0.0000               STORAGE =           0.0000
       CONSTANT HEAD =           0.0000         CONSTANT HEAD =           0.0000
               WELLS =           0.0000                 WELLS =           0.0000
     HEAD DEP BOUNDS =       36229.0547       HEAD DEP BOUNDS =         577.2305

           TOTAL OUT =       36229.0547             TOTAL OUT =         577.2305

            IN - OUT =          -1.6836              IN - OUT =          -0.1420

 PERCENT DISCREPANCY =          -0.00     PERCENT DISCREPANCY =          -0.02






         TIME SUMMARY AT END OF TIME STEP   34 IN STRESS PERIOD    2
                    SECONDS     MINUTES      HOURS       DAYS        YEARS
                    -----------------------------------------------------------
   TIME STEP LENGTH  86400.      1440.0      24.000      1.0000     2.73785E-03
 STRESS PERIOD TIME 2.93760E+06  48960.      816.00      34.000     9.30869E-02
         TOTAL TIME 3.02400E+06  50400.      840.00      35.000     9.58248E-02
1

 SOLVING FOR HEAD 
     3 ITERATIONS FOR TIME STEP  35 IN STRESS PERIOD    2

 OUTPUT CONTROL FOR STRESS PERIOD    2   TIME STEP   35
    SAVE HEAD FOR ALL LAYERS
    SAVE DRAWDOWN FOR ALL LAYERS
    SAVE BUDGET
    PRINT HEAD FOR ALL LAYERS
    PRINT BUDGET
 UBDSV1 SAVING "         STORAGE" ON UNIT  53 AT TIME STEP 35, STRESS PERIOD   2
 UBDSV2 SAVING "   CONSTANT HEAD" ON UNIT  53 AT TIME STEP 35, STRESS PERIOD   2
 UBDSV1 SAVING "FLOW RIGHT FACE " ON UNIT  53 AT TIME STEP 35, STRESS PERIOD   2
 UBDSV1 SAVING "FLOW FRONT FACE " ON UNIT  53 AT TIME STEP 35, STRESS PERIOD   2
1
              HEAD IN LAYER   1 AT END OF TIME STEP  35 IN STRESS PERIOD    2
  ---------------------------------------------------------------------------

            1           2           3           4           5           6           7           8           9          10
 ........................................................................................................................
   1    9.991       8.923       7.850       6.767       5.673       4.564       3.441       2.306       1.161      1.1496E-02
   2    9.991       8.923       7.850       6.767       5.673       4.564       3.441       2.306       1.161      1.1496E-02
   3    9.991       8.923       7.850       6.767       5.673       4.564       3.441       2.306       1.161      1.1496E-02
   4    9.991       8.923       7.850       6.767       5.673       4.564       3.441       2.306       1.161      1.1496E-02
   5    9.991       8.923       7.850       6.767       5.673       4.564       3.441       2.306       1.161      1.1496E-02
   6    9.991       8.923       7.850       6.767       5.673       4.564       3.441       2.306       1.161      1.1496E-02
   7    9.991       8.923       7.850       6.767       5.673       4.564       3.441       2.306       1.161      1.1496E-02
   8    9.991       8.923       7.850       6.767       5.673       4.564       3.441       2.306       1.161      1.1496E-02
   9    9.991       8.923       7.850       6.767       5.673       4.564       3.441       2.306       1.161      1.1496E-02
  10    9.991       8.923       7.850       6.767       5.673       4.564       3.441       2.306       1.161      1.1495E-02

 HEAD WILL BE SAVED ON UNIT   51 AT END OF TIME STEP   35, STRESS PERIOD    2

 DRAWDOWN WILL BE SAVED ON UNIT   52 AT END OF TIME STEP   35, STRESS PERIOD    2
1
  VOLUMETRIC BUDGET FOR ENTIRE MODEL AT END OF TIME STEP   35, STRESS PERIOD   2
  ------------------------------------------------------------------------------

     CUMULATIVE VOLUMES      L**3       RATES FOR THIS TIME STEP      L**3/T
     ------------------                 ------------------------

           IN:                                      IN:
           ---                                      ---
             STORAGE =       24656.5938               STORAGE =          40.5785
       CONSTANT HEAD =           0.0000         CONSTANT HEAD =           0.0000
               WELLS =           0.0000                 WELLS =           0.0000
     HEAD DEP BOUNDS =       12145.4189       HEAD DEP BOUNDS =         534.0633

            TOTAL IN =       36802.0117              TOTAL IN =         574.6418

          OUT:                                     OUT:
          ----                                     ----
             STORAGE =           0.0000               STORAGE =           0.0000
       CONSTANT HEAD =           0.0000         CONSTANT HEAD =           0.0000
               WELLS =           0.0000                 WELLS =           0.0000
     HEAD DEP BOUNDS =       36803.8438       HEAD DEP BOUNDS =         574.7909

           TOTAL OUT =       36803.8438             TOTAL OUT =         574.7909

            IN - OUT =          -1.8320              IN - OUT =          -0.1490

 PERCENT DISCREPANCY =          -0.00     PERCENT DISCREPANCY =          -0.03






         TIME SUMMARY AT END OF TIME STEP   35 IN STRESS PERIOD    2
                    SECONDS     MINUTES      HOURS       DAYS        YEARS
                    -----------------------------------------------------------
   TIME STEP LENGTH  86400.      1440.0      24.000      1.0000     2.73785E-03
 STRESS PERIOD TIME 3.02400E+06  50400.      840.00      35.000     9.58248E-02
         TOTAL TIME 3.11040E+06  51840.      864.00      36.000     9.85626E-02
1

 SOLVING FOR HEAD 
     3 ITERATIONS FOR TIME STEP  36 IN STRESS PERIOD    2

 OUTPUT CONTROL FOR STRESS PERIOD    2   TIME STEP   36
    SAVE HEAD FOR ALL LAYERS
    SAVE DRAWDOWN FOR ALL LAYERS
    SAVE BUDGET
    PRINT HEAD FOR ALL LAYERS
    PRINT BUDGET
 UBDSV1 SAVING "         STORAGE" ON UNIT  53 AT TIME STEP 36, STRESS PERIOD   2
 UBDSV2 SAVING "   CONSTANT HEAD" ON UNIT  53 AT TIME STEP 36, STRESS PERIOD   2
 UBDSV1 SAVING "FLOW RIGHT FACE " ON UNIT  53 AT TIME STEP 36, STRESS PERIOD   2
 UBDSV1 SAVING "FLOW FRONT FACE " ON UNIT  53 AT TIME STEP 36, STRESS PERIOD   2
1
              HEAD IN LAYER   1 AT END OF TIME STEP  36 IN STRESS PERIOD    2
  ---------------------------------------------------------------------------

            1           2           3           4           5           6           7           8           9          10
 ........................................................................................................................
   1    9.991       8.918       7.842       6.756       5.660       4.551       3.430       2.297       1.157      1.1453E-02
   2    9.991       8.918       7.842       6.756       5.660       4.551       3.430       2.297       1.157      1.1452E-02
   3    9.991       8.919       7.842       6.756       5.660       4.551       3.430       2.297       1.157      1.1452E-02
   4    9.991       8.919       7.842       6.756       5.660       4.551       3.430       2.297       1.157      1.1452E-02
   5    9.991       8.919       7.842       6.756       5.660       4.551       3.430       2.297       1.157      1.1452E-02
   6    9.991       8.919       7.842       6.756       5.660       4.551       3.430       2.297       1.157      1.1452E-02
   7    9.991       8.919       7.842       6.756       5.660       4.551       3.430       2.297       1.157      1.1452E-02
   8    9.991       8.919       7.842       6.756       5.660       4.551       3.430       2.297       1.157      1.1452E-02
   9    9.991       8.919       7.842       6.756       5.660       4.551       3.430       2.297       1.157      1.1452E-02
  10    9.991       8.919       7.842       6.756       5.660       4.551       3.430       2.297       1.157      1.1452E-02

 HEAD WILL BE SAVED ON UNIT   51 AT END OF TIME STEP   36, STRESS PERIOD    2

 DRAWDOWN WILL BE SAVED ON UNIT   52 AT END OF TIME STEP   36, STRESS PERIOD    2
1
  VOLUMETRIC BUDGET FOR ENTIRE MODEL AT END OF TIME STEP   36, STRESS PERIOD   2
  ------------------------------------------------------------------------------

     CUMULATIVE VOLUMES      L**3       RATES FOR THIS TIME STEP      L**3/T
     ------------------                 ------------------------

           IN:                                      IN:
           ---                                      ---
             STORAGE =       24692.8320               STORAGE =          36.2389
       CONSTANT HEAD =           0.0000         CONSTANT HEAD =           0.0000
               WELLS =           0.0000                 WELLS =           0.0000
     HEAD DEP BOUNDS =       12681.6768       HEAD DEP BOUNDS =         536.2579

            TOTAL IN =       37374.5078              TOTAL IN =         572.4968

          OUT:                                     OUT:
          ----                                     ----
             STORAGE =           0.0000               STORAGE =           0.0000
       CONSTANT HEAD =           0.0000         CONSTANT HEAD =           0.0000
               WELLS =           0.0000                 WELLS =           0.0000
     HEAD DEP BOUNDS =       37376.4570       HEAD DEP BOUNDS =         572.6124

           TOTAL OUT =       37376.4570             TOTAL OUT =         572.6124

            IN - OUT =          -1.9492              IN - OUT =          -0.1155

 PERCENT DISCREPANCY =          -0.01     PERCENT DISCREPANCY =          -0.02






         TIME SUMMARY AT END OF TIME STEP   36 IN STRESS PERIOD    2
                    SECONDS     MINUTES      HOURS       DAYS        YEARS
                    -----------------------------------------------------------
   TIME STEP LENGTH  86400.      1440.0      24.000      1.0000     2.73785E-03
 STRESS PERIOD TIME 3.11040E+06  51840.      864.00      36.000     9.85626E-02
         TOTAL TIME 3.19680E+06  53280.      888.00      37.000     0.10130    
1

 SOLVING FOR HEAD 
     3 ITERATIONS FOR TIME STEP  37 IN STRESS PERIOD    2

 OUTPUT CONTROL FOR STRESS PERIOD    2   TIME STEP   37
    SAVE HEAD FOR ALL LAYERS
    SAVE DRAWDOWN FOR ALL LAYERS
    SAVE BUDGET
    PRINT HEAD FOR ALL LAYERS
    PRINT BUDGET
 UBDSV1 SAVING "         STORAGE" ON UNIT  53 AT TIME STEP 37, STRESS PERIOD   2
 UBDSV2 SAVING "   CONSTANT HEAD" ON UNIT  53 AT TIME STEP 37, STRESS PERIOD   2
 UBDSV1 SAVING "FLOW RIGHT FACE " ON UNIT  53 AT TIME STEP 37, STRESS PERIOD   2
 UBDSV1 SAVING "FLOW FRONT FACE " ON UNIT  53 AT TIME STEP 37, STRESS PERIOD   2
1
              HEAD IN LAYER   1 AT END OF TIME STEP  37 IN STRESS PERIOD    2
  ---------------------------------------------------------------------------

            1           2           3           4           5           6           7           8           9          10
 ........................................................................................................................
   1    9.991       8.915       7.834       6.746       5.649       4.540       3.420       2.290       1.153      1.1414E-02
   2    9.991       8.915       7.834       6.747       5.649       4.540       3.420       2.290       1.153      1.1414E-02
   3    9.991       8.915       7.834       6.747       5.649       4.540       3.420       2.290       1.153      1.1413E-02
   4    9.991       8.915       7.834       6.747       5.649       4.540       3.420       2.290       1.153      1.1413E-02
   5    9.991       8.915       7.834       6.747       5.649       4.540       3.420       2.290       1.153      1.1413E-02
   6    9.991       8.915       7.834       6.747       5.649       4.540       3.420       2.290       1.153      1.1413E-02
   7    9.991       8.915       7.834       6.747       5.649       4.540       3.420       2.290       1.153      1.1413E-02
   8    9.991       8.915       7.834       6.747       5.649       4.540       3.420       2.290       1.153      1.1413E-02
   9    9.991       8.915       7.834       6.747       5.649       4.540       3.420       2.290       1.153      1.1413E-02
  10    9.991       8.915       7.834       6.747       5.649       4.540       3.420       2.290       1.153      1.1413E-02

 HEAD WILL BE SAVED ON UNIT   51 AT END OF TIME STEP   37, STRESS PERIOD    2

 DRAWDOWN WILL BE SAVED ON UNIT   52 AT END OF TIME STEP   37, STRESS PERIOD    2
1
  VOLUMETRIC BUDGET FOR ENTIRE MODEL AT END OF TIME STEP   37, STRESS PERIOD   2
  ------------------------------------------------------------------------------

     CUMULATIVE VOLUMES      L**3       RATES FOR THIS TIME STEP      L**3/T
     ------------------                 ------------------------

           IN:                                      IN:
           ---                                      ---
             STORAGE =       24725.1934               STORAGE =          32.3616
       CONSTANT HEAD =           0.0000         CONSTANT HEAD =           0.0000
               WELLS =           0.0000                 WELLS =           0.0000
     HEAD DEP BOUNDS =       13219.8604       HEAD DEP BOUNDS =         538.1836

            TOTAL IN =       37945.0547              TOTAL IN =         570.5452

          OUT:                                     OUT:
          ----                                     ----
             STORAGE =           0.0000               STORAGE =           0.0000
       CONSTANT HEAD =           0.0000         CONSTANT HEAD =           0.0000
               WELLS =           0.0000                 WELLS =           0.0000
     HEAD DEP BOUNDS =       37947.1250       HEAD DEP BOUNDS =         570.6669

           TOTAL OUT =       37947.1250             TOTAL OUT =         570.6669

            IN - OUT =          -2.0703              IN - OUT =          -0.1218

 PERCENT DISCREPANCY =          -0.01     PERCENT DISCREPANCY =          -0.02






         TIME SUMMARY AT END OF TIME STEP   37 IN STRESS PERIOD    2
                    SECONDS     MINUTES      HOURS       DAYS        YEARS
                    -----------------------------------------------------------
   TIME STEP LENGTH  86400.      1440.0      24.000      1.0000     2.73785E-03
 STRESS PERIOD TIME 3.19680E+06  53280.      888.00      37.000     0.10130    
         TOTAL TIME 3.28320E+06  54720.      912.00      38.000     0.10404    
1

 SOLVING FOR HEAD 
     3 ITERATIONS FOR TIME STEP  38 IN STRESS PERIOD    2

 OUTPUT CONTROL FOR STRESS PERIOD    2   TIME STEP   38
    SAVE HEAD FOR ALL LAYERS
    SAVE DRAWDOWN FOR ALL LAYERS
    SAVE BUDGET
    PRINT HEAD FOR ALL LAYERS
    PRINT BUDGET
 UBDSV1 SAVING "         STORAGE" ON UNIT  53 AT TIME STEP 38, STRESS PERIOD   2
 UBDSV2 SAVING "   CONSTANT HEAD" ON UNIT  53 AT TIME STEP 38, STRESS PERIOD   2
 UBDSV1 SAVING "FLOW RIGHT FACE " ON UNIT  53 AT TIME STEP 38, STRESS PERIOD   2
 UBDSV1 SAVING "FLOW FRONT FACE " ON UNIT  53 AT TIME STEP 38, STRESS PERIOD   2
1
              HEAD IN LAYER   1 AT END OF TIME STEP  38 IN STRESS PERIOD    2
  ---------------------------------------------------------------------------

            1           2           3           4           5           6           7           8           9          10
 ........................................................................................................................
   1    9.991       8.911       7.828       6.738       5.639       4.530       3.411       2.283       1.149      1.1379E-02
   2    9.991       8.911       7.828       6.738       5.639       4.530       3.411       2.283       1.149      1.1379E-02
   3    9.991       8.911       7.828       6.738       5.639       4.530       3.411       2.284       1.149      1.1379E-02
   4    9.991       8.911       7.828       6.738       5.639       4.530       3.411       2.284       1.149      1.1379E-02
   5    9.991       8.911       7.828       6.738       5.639       4.530       3.411       2.284       1.149      1.1379E-02
   6    9.991       8.911       7.828       6.738       5.639       4.530       3.411       2.283       1.149      1.1379E-02
   7    9.991       8.911       7.828       6.738       5.639       4.530       3.411       2.283       1.149      1.1379E-02
   8    9.991       8.911       7.828       6.738       5.639       4.530       3.411       2.283       1.149      1.1379E-02
   9    9.991       8.911       7.828       6.738       5.639       4.530       3.411       2.283       1.149      1.1378E-02
  10    9.991       8.911       7.828       6.738       5.639       4.530       3.411       2.283       1.149      1.1378E-02

 HEAD WILL BE SAVED ON UNIT   51 AT END OF TIME STEP   38, STRESS PERIOD    2

 DRAWDOWN WILL BE SAVED ON UNIT   52 AT END OF TIME STEP   38, STRESS PERIOD    2
1
  VOLUMETRIC BUDGET FOR ENTIRE MODEL AT END OF TIME STEP   38, STRESS PERIOD   2
  ------------------------------------------------------------------------------

     CUMULATIVE VOLUMES      L**3       RATES FOR THIS TIME STEP      L**3/T
     ------------------                 ------------------------

           IN:                                      IN:
           ---                                      ---
             STORAGE =       24754.0938               STORAGE =          28.9009
       CONSTANT HEAD =           0.0000         CONSTANT HEAD =           0.0000
               WELLS =           0.0000                 WELLS =           0.0000
     HEAD DEP BOUNDS =       13759.8018       HEAD DEP BOUNDS =         539.9418

            TOTAL IN =       38513.8945              TOTAL IN =         568.8427

          OUT:                                     OUT:
          ----                                     ----
             STORAGE =           0.0000               STORAGE =           0.0000
       CONSTANT HEAD =           0.0000         CONSTANT HEAD =           0.0000
               WELLS =           0.0000                 WELLS =           0.0000
     HEAD DEP BOUNDS =       38516.0547       HEAD DEP BOUNDS =         568.9296

           TOTAL OUT =       38516.0547             TOTAL OUT =         568.9296

            IN - OUT =          -2.1602              IN - OUT =      -8.6975E-02

 PERCENT DISCREPANCY =          -0.01     PERCENT DISCREPANCY =          -0.02






         TIME SUMMARY AT END OF TIME STEP   38 IN STRESS PERIOD    2
                    SECONDS     MINUTES      HOURS       DAYS        YEARS
                    -----------------------------------------------------------
   TIME STEP LENGTH  86400.      1440.0      24.000      1.0000     2.73785E-03
 STRESS PERIOD TIME 3.28320E+06  54720.      912.00      38.000     0.10404    
         TOTAL TIME 3.36960E+06  56160.      936.00      39.000     0.10678    
1

 SOLVING FOR HEAD 
     3 ITERATIONS FOR TIME STEP  39 IN STRESS PERIOD    2

 OUTPUT CONTROL FOR STRESS PERIOD    2   TIME STEP   39
    SAVE HEAD FOR ALL LAYERS
    SAVE DRAWDOWN FOR ALL LAYERS
    SAVE BUDGET
    PRINT HEAD FOR ALL LAYERS
    PRINT BUDGET
 UBDSV1 SAVING "         STORAGE" ON UNIT  53 AT TIME STEP 39, STRESS PERIOD   2
 UBDSV2 SAVING "   CONSTANT HEAD" ON UNIT  53 AT TIME STEP 39, STRESS PERIOD   2
 UBDSV1 SAVING "FLOW RIGHT FACE " ON UNIT  53 AT TIME STEP 39, STRESS PERIOD   2
 UBDSV1 SAVING "FLOW FRONT FACE " ON UNIT  53 AT TIME STEP 39, STRESS PERIOD   2
1
              HEAD IN LAYER   1 AT END OF TIME STEP  39 IN STRESS PERIOD    2
  ---------------------------------------------------------------------------

            1           2           3           4           5           6           7           8           9          10
 ........................................................................................................................
   1    9.991       8.908       7.822       6.730       5.630       4.521       3.403       2.278       1.146      1.1348E-02
   2    9.991       8.908       7.822       6.730       5.630       4.521       3.403       2.278       1.146      1.1348E-02
   3    9.991       8.908       7.822       6.730       5.630       4.521       3.403       2.278       1.146      1.1348E-02
   4    9.991       8.908       7.822       6.730       5.630       4.521       3.403       2.278       1.146      1.1348E-02
   5    9.991       8.908       7.822       6.730       5.630       4.521       3.403       2.278       1.146      1.1348E-02
   6    9.991       8.908       7.822       6.730       5.630       4.521       3.403       2.278       1.146      1.1348E-02
   7    9.991       8.908       7.822       6.730       5.630       4.521       3.403       2.278       1.146      1.1348E-02
   8    9.991       8.908       7.822       6.730       5.630       4.521       3.403       2.278       1.146      1.1347E-02
   9    9.991       8.908       7.822       6.730       5.630       4.521       3.403       2.278       1.146      1.1347E-02
  10    9.991       8.908       7.822       6.730       5.630       4.521       3.403       2.278       1.146      1.1347E-02

 HEAD WILL BE SAVED ON UNIT   51 AT END OF TIME STEP   39, STRESS PERIOD    2

 DRAWDOWN WILL BE SAVED ON UNIT   52 AT END OF TIME STEP   39, STRESS PERIOD    2
1
  VOLUMETRIC BUDGET FOR ENTIRE MODEL AT END OF TIME STEP   39, STRESS PERIOD   2
  ------------------------------------------------------------------------------

     CUMULATIVE VOLUMES      L**3       RATES FOR THIS TIME STEP      L**3/T
     ------------------                 ------------------------

           IN:                                      IN:
           ---                                      ---
             STORAGE =       24779.9023               STORAGE =          25.8088
       CONSTANT HEAD =           0.0000         CONSTANT HEAD =           0.0000
               WELLS =           0.0000                 WELLS =           0.0000
     HEAD DEP BOUNDS =       14301.2793       HEAD DEP BOUNDS =         541.4776

            TOTAL IN =       39081.1797              TOTAL IN =         567.2864

          OUT:                                     OUT:
          ----                                     ----
             STORAGE =           0.0000               STORAGE =           0.0000
       CONSTANT HEAD =           0.0000         CONSTANT HEAD =           0.0000
               WELLS =           0.0000                 WELLS =           0.0000
     HEAD DEP BOUNDS =       39083.4336       HEAD DEP BOUNDS =         567.3782

           TOTAL OUT =       39083.4336             TOTAL OUT =         567.3782

            IN - OUT =          -2.2539              IN - OUT =      -9.1736E-02

 PERCENT DISCREPANCY =          -0.01     PERCENT DISCREPANCY =          -0.02






         TIME SUMMARY AT END OF TIME STEP   39 IN STRESS PERIOD    2
                    SECONDS     MINUTES      HOURS       DAYS        YEARS
                    -----------------------------------------------------------
   TIME STEP LENGTH  86400.      1440.0      24.000      1.0000     2.73785E-03
 STRESS PERIOD TIME 3.36960E+06  56160.      936.00      39.000     0.10678    
         TOTAL TIME 3.45600E+06  57600.      960.00      40.000     0.10951    
1

 SOLVING FOR HEAD 
     3 ITERATIONS FOR TIME STEP  40 IN STRESS PERIOD    2

 OUTPUT CONTROL FOR STRESS PERIOD    2   TIME STEP   40
    SAVE HEAD FOR ALL LAYERS
    SAVE DRAWDOWN FOR ALL LAYERS
    SAVE BUDGET
    PRINT HEAD FOR ALL LAYERS
    PRINT BUDGET
 UBDSV1 SAVING "         STORAGE" ON UNIT  53 AT TIME STEP 40, STRESS PERIOD   2
 UBDSV2 SAVING "   CONSTANT HEAD" ON UNIT  53 AT TIME STEP 40, STRESS PERIOD   2
 UBDSV1 SAVING "FLOW RIGHT FACE " ON UNIT  53 AT TIME STEP 40, STRESS PERIOD   2
 UBDSV1 SAVING "FLOW FRONT FACE " ON UNIT  53 AT TIME STEP 40, STRESS PERIOD   2
1
              HEAD IN LAYER   1 AT END OF TIME STEP  40 IN STRESS PERIOD    2
  ---------------------------------------------------------------------------

            1           2           3           4           5           6           7           8           9          10
 ........................................................................................................................
   1    9.991       8.905       7.817       6.723       5.622       4.513       3.396       2.272       1.143      1.1320E-02
   2    9.991       8.905       7.817       6.723       5.622       4.513       3.396       2.272       1.143      1.1320E-02
   3    9.991       8.905       7.817       6.723       5.622       4.513       3.396       2.272       1.143      1.1320E-02
   4    9.991       8.905       7.817       6.723       5.622       4.513       3.396       2.272       1.143      1.1320E-02
   5    9.991       8.905       7.817       6.723       5.622       4.513       3.396       2.272       1.143      1.1320E-02
   6    9.991       8.905       7.817       6.723       5.622       4.513       3.396       2.272       1.143      1.1320E-02
   7    9.991       8.905       7.817       6.723       5.622       4.513       3.396       2.272       1.143      1.1320E-02
   8    9.991       8.905       7.817       6.723       5.622       4.513       3.396       2.272       1.143      1.1320E-02
   9    9.991       8.905       7.817       6.723       5.622       4.513       3.396       2.272       1.143      1.1320E-02
  10    9.991       8.905       7.817       6.723       5.622       4.513       3.396       2.272       1.143      1.1320E-02

 HEAD WILL BE SAVED ON UNIT   51 AT END OF TIME STEP   40, STRESS PERIOD    2

 DRAWDOWN WILL BE SAVED ON UNIT   52 AT END OF TIME STEP   40, STRESS PERIOD    2
1
  VOLUMETRIC BUDGET FOR ENTIRE MODEL AT END OF TIME STEP   40, STRESS PERIOD   2
  ------------------------------------------------------------------------------

     CUMULATIVE VOLUMES      L**3       RATES FOR THIS TIME STEP      L**3/T
     ------------------                 ------------------------

           IN:                                      IN:
           ---                                      ---
             STORAGE =       24802.9512               STORAGE =          23.0489
       CONSTANT HEAD =           0.0000         CONSTANT HEAD =           0.0000
               WELLS =           0.0000                 WELLS =           0.0000
     HEAD DEP BOUNDS =       14844.1670       HEAD DEP BOUNDS =         542.8876

            TOTAL IN =       39647.1172              TOTAL IN =         565.9364

          OUT:                                     OUT:
          ----                                     ----
             STORAGE =           0.0000               STORAGE =           0.0000
       CONSTANT HEAD =           0.0000         CONSTANT HEAD =           0.0000
               WELLS =           0.0000                 WELLS =           0.0000
     HEAD DEP BOUNDS =       39649.4258       HEAD DEP BOUNDS =         565.9927

           TOTAL OUT =       39649.4258             TOTAL OUT =         565.9927

            IN - OUT =          -2.3086              IN - OUT =      -5.6335E-02

 PERCENT DISCREPANCY =          -0.01     PERCENT DISCREPANCY =          -0.01






         TIME SUMMARY AT END OF TIME STEP   40 IN STRESS PERIOD    2
                    SECONDS     MINUTES      HOURS       DAYS        YEARS
                    -----------------------------------------------------------
   TIME STEP LENGTH  86400.      1440.0      24.000      1.0000     2.73785E-03
 STRESS PERIOD TIME 3.45600E+06  57600.      960.00      40.000     0.10951    
         TOTAL TIME 3.54240E+06  59040.      984.00      41.000     0.11225    
1

 SOLVING FOR HEAD 
     3 ITERATIONS FOR TIME STEP  41 IN STRESS PERIOD    2

 OUTPUT CONTROL FOR STRESS PERIOD    2   TIME STEP   41
    SAVE HEAD FOR ALL LAYERS
    SAVE DRAWDOWN FOR ALL LAYERS
    SAVE BUDGET
    PRINT HEAD FOR ALL LAYERS
    PRINT BUDGET
 UBDSV1 SAVING "         STORAGE" ON UNIT  53 AT TIME STEP 41, STRESS PERIOD   2
 UBDSV2 SAVING "   CONSTANT HEAD" ON UNIT  53 AT TIME STEP 41, STRESS PERIOD   2
 UBDSV1 SAVING "FLOW RIGHT FACE " ON UNIT  53 AT TIME STEP 41, STRESS PERIOD   2
 UBDSV1 SAVING "FLOW FRONT FACE " ON UNIT  53 AT TIME STEP 41, STRESS PERIOD   2
1
              HEAD IN LAYER   1 AT END OF TIME STEP  41 IN STRESS PERIOD    2
  ---------------------------------------------------------------------------

            1           2           3           4           5           6           7           8           9          10
 ........................................................................................................................
   1    9.991       8.903       7.812       6.717       5.615       4.506       3.390       2.268       1.141      1.1295E-02
   2    9.991       8.903       7.812       6.717       5.615       4.506       3.390       2.268       1.141      1.1295E-02
   3    9.991       8.903       7.812       6.717       5.615       4.506       3.390       2.268       1.141      1.1295E-02
   4    9.991       8.903       7.812       6.717       5.615       4.506       3.390       2.268       1.141      1.1295E-02
   5    9.991       8.903       7.812       6.717       5.615       4.506       3.390       2.268       1.141      1.1295E-02
   6    9.991       8.903       7.812       6.717       5.615       4.506       3.390       2.268       1.141      1.1295E-02
   7    9.991       8.903       7.812       6.717       5.615       4.506       3.390       2.268       1.141      1.1295E-02
   8    9.991       8.903       7.812       6.717       5.615       4.506       3.390       2.268       1.141      1.1295E-02
   9    9.991       8.903       7.812       6.717       5.615       4.506       3.390       2.268       1.141      1.1295E-02
  10    9.991       8.903       7.812       6.717       5.615       4.506       3.390       2.268       1.141      1.1295E-02

 HEAD WILL BE SAVED ON UNIT   51 AT END OF TIME STEP   41, STRESS PERIOD    2

 DRAWDOWN WILL BE SAVED ON UNIT   52 AT END OF TIME STEP   41, STRESS PERIOD    2
1
  VOLUMETRIC BUDGET FOR ENTIRE MODEL AT END OF TIME STEP   41, STRESS PERIOD   2
  ------------------------------------------------------------------------------

     CUMULATIVE VOLUMES      L**3       RATES FOR THIS TIME STEP      L**3/T
     ------------------                 ------------------------

           IN:                                      IN:
           ---                                      ---
             STORAGE =       24823.5332               STORAGE =          20.5827
       CONSTANT HEAD =           0.0000         CONSTANT HEAD =           0.0000
               WELLS =           0.0000                 WELLS =           0.0000
     HEAD DEP BOUNDS =       15388.2793       HEAD DEP BOUNDS =         544.1124

            TOTAL IN =       40211.8125              TOTAL IN =         564.6951

          OUT:                                     OUT:
          ----                                     ----
             STORAGE =           0.0000               STORAGE =           0.0000
       CONSTANT HEAD =           0.0000         CONSTANT HEAD =           0.0000
               WELLS =           0.0000                 WELLS =           0.0000
     HEAD DEP BOUNDS =       40214.1797       HEAD DEP BOUNDS =         564.7554

           TOTAL OUT =       40214.1797             TOTAL OUT =         564.7554

            IN - OUT =          -2.3672              IN - OUT =      -6.0303E-02

 PERCENT DISCREPANCY =          -0.01     PERCENT DISCREPANCY =          -0.01






         TIME SUMMARY AT END OF TIME STEP   41 IN STRESS PERIOD    2
                    SECONDS     MINUTES      HOURS       DAYS        YEARS
                    -----------------------------------------------------------
   TIME STEP LENGTH  86400.      1440.0      24.000      1.0000     2.73785E-03
 STRESS PERIOD TIME 3.54240E+06  59040.      984.00      41.000     0.11225    
         TOTAL TIME 3.62880E+06  60480.      1008.0      42.000     0.11499    
1

 SOLVING FOR HEAD 
     3 ITERATIONS FOR TIME STEP  42 IN STRESS PERIOD    2

 OUTPUT CONTROL FOR STRESS PERIOD    2   TIME STEP   42
    SAVE HEAD FOR ALL LAYERS
    SAVE DRAWDOWN FOR ALL LAYERS
    SAVE BUDGET
    PRINT HEAD FOR ALL LAYERS
    PRINT BUDGET
 UBDSV1 SAVING "         STORAGE" ON UNIT  53 AT TIME STEP 42, STRESS PERIOD   2
 UBDSV2 SAVING "   CONSTANT HEAD" ON UNIT  53 AT TIME STEP 42, STRESS PERIOD   2
 UBDSV1 SAVING "FLOW RIGHT FACE " ON UNIT  53 AT TIME STEP 42, STRESS PERIOD   2
 UBDSV1 SAVING "FLOW FRONT FACE " ON UNIT  53 AT TIME STEP 42, STRESS PERIOD   2
1
              HEAD IN LAYER   1 AT END OF TIME STEP  42 IN STRESS PERIOD    2
  ---------------------------------------------------------------------------

            1           2           3           4           5           6           7           8           9          10
 ........................................................................................................................
   1    9.991       8.900       7.808       6.711       5.608       4.500       3.384       2.264       1.139      1.1273E-02
   2    9.991       8.900       7.808       6.711       5.608       4.500       3.384       2.264       1.139      1.1273E-02
   3    9.991       8.900       7.808       6.711       5.609       4.500       3.384       2.264       1.139      1.1273E-02
   4    9.991       8.900       7.808       6.711       5.609       4.500       3.384       2.264       1.139      1.1273E-02
   5    9.991       8.900       7.808       6.711       5.609       4.500       3.384       2.264       1.139      1.1273E-02
   6    9.991       8.900       7.808       6.711       5.609       4.500       3.384       2.264       1.139      1.1273E-02
   7    9.991       8.900       7.808       6.711       5.609       4.500       3.384       2.264       1.139      1.1273E-02
   8    9.991       8.900       7.808       6.711       5.609       4.500       3.384       2.264       1.139      1.1273E-02
   9    9.991       8.900       7.808       6.711       5.608       4.500       3.384       2.264       1.139      1.1273E-02
  10    9.991       8.900       7.808       6.711       5.608       4.500       3.384       2.264       1.139      1.1273E-02

 HEAD WILL BE SAVED ON UNIT   51 AT END OF TIME STEP   42, STRESS PERIOD    2

 DRAWDOWN WILL BE SAVED ON UNIT   52 AT END OF TIME STEP   42, STRESS PERIOD    2
1
  VOLUMETRIC BUDGET FOR ENTIRE MODEL AT END OF TIME STEP   42, STRESS PERIOD   2
  ------------------------------------------------------------------------------

     CUMULATIVE VOLUMES      L**3       RATES FOR THIS TIME STEP      L**3/T
     ------------------                 ------------------------

           IN:                                      IN:
           ---                                      ---
             STORAGE =       24841.9141               STORAGE =          18.3813
       CONSTANT HEAD =           0.0000         CONSTANT HEAD =           0.0000
               WELLS =           0.0000                 WELLS =           0.0000
     HEAD DEP BOUNDS =       15933.4854       HEAD DEP BOUNDS =         545.2062

            TOTAL IN =       40775.3984              TOTAL IN =         563.5875

          OUT:                                     OUT:
          ----                                     ----
             STORAGE =           0.0000               STORAGE =           0.0000
       CONSTANT HEAD =           0.0000         CONSTANT HEAD =           0.0000
               WELLS =           0.0000                 WELLS =           0.0000
     HEAD DEP BOUNDS =       40777.8320       HEAD DEP BOUNDS =         563.6506

           TOTAL OUT =       40777.8320             TOTAL OUT =         563.6506

            IN - OUT =          -2.4336              IN - OUT =      -6.3049E-02

 PERCENT DISCREPANCY =          -0.01     PERCENT DISCREPANCY =          -0.01






         TIME SUMMARY AT END OF TIME STEP   42 IN STRESS PERIOD    2
                    SECONDS     MINUTES      HOURS       DAYS        YEARS
                    -----------------------------------------------------------
   TIME STEP LENGTH  86400.      1440.0      24.000      1.0000     2.73785E-03
 STRESS PERIOD TIME 3.62880E+06  60480.      1008.0      42.000     0.11499    
         TOTAL TIME 3.71520E+06  61920.      1032.0      43.000     0.11773    
1

 SOLVING FOR HEAD 
     3 ITERATIONS FOR TIME STEP  43 IN STRESS PERIOD    2

 OUTPUT CONTROL FOR STRESS PERIOD    2   TIME STEP   43
    SAVE HEAD FOR ALL LAYERS
    SAVE DRAWDOWN FOR ALL LAYERS
    SAVE BUDGET
    PRINT HEAD FOR ALL LAYERS
    PRINT BUDGET
 UBDSV1 SAVING "         STORAGE" ON UNIT  53 AT TIME STEP 43, STRESS PERIOD   2
 UBDSV2 SAVING "   CONSTANT HEAD" ON UNIT  53 AT TIME STEP 43, STRESS PERIOD   2
 UBDSV1 SAVING "FLOW RIGHT FACE " ON UNIT  53 AT TIME STEP 43, STRESS PERIOD   2
 UBDSV1 SAVING "FLOW FRONT FACE " ON UNIT  53 AT TIME STEP 43, STRESS PERIOD   2
1
              HEAD IN LAYER   1 AT END OF TIME STEP  43 IN STRESS PERIOD    2
  ---------------------------------------------------------------------------

            1           2           3           4           5           6           7           8           9          10
 ........................................................................................................................
   1    9.991       8.898       7.804       6.706       5.603       4.494       3.379       2.260       1.137      1.1253E-02
   2    9.991       8.898       7.804       6.706       5.603       4.494       3.379       2.260       1.137      1.1253E-02
   3    9.991       8.898       7.804       6.706       5.603       4.494       3.379       2.260       1.137      1.1253E-02
   4    9.991       8.898       7.804       6.706       5.603       4.494       3.379       2.260       1.137      1.1253E-02
   5    9.991       8.898       7.804       6.706       5.603       4.494       3.379       2.260       1.137      1.1253E-02
   6    9.991       8.898       7.804       6.706       5.603       4.494       3.379       2.260       1.137      1.1253E-02
   7    9.991       8.898       7.804       6.706       5.603       4.494       3.379       2.260       1.137      1.1253E-02
   8    9.991       8.898       7.804       6.706       5.603       4.494       3.379       2.260       1.137      1.1253E-02
   9    9.991       8.898       7.804       6.706       5.603       4.494       3.379       2.260       1.137      1.1253E-02
  10    9.991       8.898       7.804       6.706       5.603       4.494       3.379       2.260       1.137      1.1253E-02

 HEAD WILL BE SAVED ON UNIT   51 AT END OF TIME STEP   43, STRESS PERIOD    2

 DRAWDOWN WILL BE SAVED ON UNIT   52 AT END OF TIME STEP   43, STRESS PERIOD    2
1
  VOLUMETRIC BUDGET FOR ENTIRE MODEL AT END OF TIME STEP   43, STRESS PERIOD   2
  ------------------------------------------------------------------------------

     CUMULATIVE VOLUMES      L**3       RATES FOR THIS TIME STEP      L**3/T
     ------------------                 ------------------------

           IN:                                      IN:
           ---                                      ---
             STORAGE =       24858.3281               STORAGE =          16.4147
       CONSTANT HEAD =           0.0000         CONSTANT HEAD =           0.0000
               WELLS =           0.0000                 WELLS =           0.0000
     HEAD DEP BOUNDS =       16479.6680       HEAD DEP BOUNDS =         546.1830

            TOTAL IN =       41337.9961              TOTAL IN =         562.5978

          OUT:                                     OUT:
          ----                                     ----
             STORAGE =           0.0000               STORAGE =           0.0000
       CONSTANT HEAD =           0.0000         CONSTANT HEAD =           0.0000
               WELLS =           0.0000                 WELLS =           0.0000
     HEAD DEP BOUNDS =       41340.4961       HEAD DEP BOUNDS =         562.6638

           TOTAL OUT =       41340.4961             TOTAL OUT =         562.6638

            IN - OUT =          -2.5000              IN - OUT =      -6.6040E-02

 PERCENT DISCREPANCY =          -0.01     PERCENT DISCREPANCY =          -0.01






         TIME SUMMARY AT END OF TIME STEP   43 IN STRESS PERIOD    2
                    SECONDS     MINUTES      HOURS       DAYS        YEARS
                    -----------------------------------------------------------
   TIME STEP LENGTH  86400.      1440.0      24.000      1.0000     2.73785E-03
 STRESS PERIOD TIME 3.71520E+06  61920.      1032.0      43.000     0.11773    
         TOTAL TIME 3.80160E+06  63360.      1056.0      44.000     0.12047    
1

 SOLVING FOR HEAD 
     3 ITERATIONS FOR TIME STEP  44 IN STRESS PERIOD    2

 OUTPUT CONTROL FOR STRESS PERIOD    2   TIME STEP   44
    SAVE HEAD FOR ALL LAYERS
    SAVE DRAWDOWN FOR ALL LAYERS
    SAVE BUDGET
    PRINT HEAD FOR ALL LAYERS
    PRINT BUDGET
 UBDSV1 SAVING "         STORAGE" ON UNIT  53 AT TIME STEP 44, STRESS PERIOD   2
 UBDSV2 SAVING "   CONSTANT HEAD" ON UNIT  53 AT TIME STEP 44, STRESS PERIOD   2
 UBDSV1 SAVING "FLOW RIGHT FACE " ON UNIT  53 AT TIME STEP 44, STRESS PERIOD   2
 UBDSV1 SAVING "FLOW FRONT FACE " ON UNIT  53 AT TIME STEP 44, STRESS PERIOD   2
1
              HEAD IN LAYER   1 AT END OF TIME STEP  44 IN STRESS PERIOD    2
  ---------------------------------------------------------------------------

            1           2           3           4           5           6           7           8           9          10
 ........................................................................................................................
   1    9.991       8.897       7.801       6.701       5.598       4.489       3.375       2.257       1.135      1.1236E-02
   2    9.991       8.897       7.801       6.701       5.598       4.489       3.375       2.257       1.135      1.1236E-02
   3    9.991       8.897       7.801       6.701       5.598       4.489       3.375       2.257       1.135      1.1236E-02
   4    9.991       8.897       7.801       6.702       5.598       4.489       3.375       2.257       1.135      1.1236E-02
   5    9.991       8.897       7.801       6.702       5.598       4.489       3.375       2.257       1.135      1.1236E-02
   6    9.991       8.897       7.801       6.702       5.598       4.489       3.375       2.257       1.135      1.1236E-02
   7    9.991       8.897       7.801       6.702       5.598       4.489       3.375       2.257       1.135      1.1236E-02
   8    9.991       8.897       7.801       6.702       5.598       4.489       3.375       2.257       1.135      1.1236E-02
   9    9.991       8.897       7.801       6.701       5.598       4.489       3.375       2.257       1.135      1.1236E-02
  10    9.991       8.897       7.801       6.701       5.598       4.489       3.375       2.257       1.135      1.1235E-02

 HEAD WILL BE SAVED ON UNIT   51 AT END OF TIME STEP   44, STRESS PERIOD    2

 DRAWDOWN WILL BE SAVED ON UNIT   52 AT END OF TIME STEP   44, STRESS PERIOD    2
1
  VOLUMETRIC BUDGET FOR ENTIRE MODEL AT END OF TIME STEP   44, STRESS PERIOD   2
  ------------------------------------------------------------------------------

     CUMULATIVE VOLUMES      L**3       RATES FOR THIS TIME STEP      L**3/T
     ------------------                 ------------------------

           IN:                                      IN:
           ---                                      ---
             STORAGE =       24872.9883               STORAGE =          14.6596
       CONSTANT HEAD =           0.0000         CONSTANT HEAD =           0.0000
               WELLS =           0.0000                 WELLS =           0.0000
     HEAD DEP BOUNDS =       17026.7617       HEAD DEP BOUNDS =         547.0939

            TOTAL IN =       41899.7500              TOTAL IN =         561.7534

          OUT:                                     OUT:
          ----                                     ----
             STORAGE =           0.0000               STORAGE =           0.0000
       CONSTANT HEAD =           0.0000         CONSTANT HEAD =           0.0000
               WELLS =           0.0000                 WELLS =           0.0000
     HEAD DEP BOUNDS =       41902.2773       HEAD DEP BOUNDS =         561.7827

           TOTAL OUT =       41902.2773             TOTAL OUT =         561.7827

            IN - OUT =          -2.5273              IN - OUT =      -2.9236E-02

 PERCENT DISCREPANCY =          -0.01     PERCENT DISCREPANCY =          -0.01






         TIME SUMMARY AT END OF TIME STEP   44 IN STRESS PERIOD    2
                    SECONDS     MINUTES      HOURS       DAYS        YEARS
                    -----------------------------------------------------------
   TIME STEP LENGTH  86400.      1440.0      24.000      1.0000     2.73785E-03
 STRESS PERIOD TIME 3.80160E+06  63360.      1056.0      44.000     0.12047    
         TOTAL TIME 3.88800E+06  64800.      1080.0      45.000     0.12320    
1

 SOLVING FOR HEAD 
     3 ITERATIONS FOR TIME STEP  45 IN STRESS PERIOD    2

 OUTPUT CONTROL FOR STRESS PERIOD    2   TIME STEP   45
    SAVE HEAD FOR ALL LAYERS
    SAVE DRAWDOWN FOR ALL LAYERS
    SAVE BUDGET
    PRINT HEAD FOR ALL LAYERS
    PRINT BUDGET
 UBDSV1 SAVING "         STORAGE" ON UNIT  53 AT TIME STEP 45, STRESS PERIOD   2
 UBDSV2 SAVING "   CONSTANT HEAD" ON UNIT  53 AT TIME STEP 45, STRESS PERIOD   2
 UBDSV1 SAVING "FLOW RIGHT FACE " ON UNIT  53 AT TIME STEP 45, STRESS PERIOD   2
 UBDSV1 SAVING "FLOW FRONT FACE " ON UNIT  53 AT TIME STEP 45, STRESS PERIOD   2
1
              HEAD IN LAYER   1 AT END OF TIME STEP  45 IN STRESS PERIOD    2
  ---------------------------------------------------------------------------

            1           2           3           4           5           6           7           8           9          10
 ........................................................................................................................
   1    9.991       8.895       7.798       6.697       5.593       4.484       3.371       2.254       1.133      1.1220E-02
   2    9.991       8.895       7.798       6.697       5.593       4.484       3.371       2.254       1.133      1.1220E-02
   3    9.991       8.895       7.798       6.698       5.593       4.484       3.371       2.254       1.133      1.1220E-02
   4    9.991       8.895       7.798       6.698       5.593       4.484       3.371       2.254       1.133      1.1220E-02
   5    9.991       8.895       7.798       6.698       5.593       4.484       3.371       2.254       1.133      1.1220E-02
   6    9.991       8.895       7.798       6.698       5.593       4.484       3.371       2.254       1.133      1.1220E-02
   7    9.991       8.895       7.798       6.698       5.593       4.484       3.371       2.254       1.133      1.1220E-02
   8    9.991       8.895       7.798       6.698       5.593       4.484       3.371       2.254       1.133      1.1220E-02
   9    9.991       8.895       7.798       6.698       5.593       4.484       3.371       2.254       1.133      1.1220E-02
  10    9.991       8.895       7.798       6.697       5.593       4.484       3.371       2.254       1.133      1.1220E-02

 HEAD WILL BE SAVED ON UNIT   51 AT END OF TIME STEP   45, STRESS PERIOD    2

 DRAWDOWN WILL BE SAVED ON UNIT   52 AT END OF TIME STEP   45, STRESS PERIOD    2
1
  VOLUMETRIC BUDGET FOR ENTIRE MODEL AT END OF TIME STEP   45, STRESS PERIOD   2
  ------------------------------------------------------------------------------

     CUMULATIVE VOLUMES      L**3       RATES FOR THIS TIME STEP      L**3/T
     ------------------                 ------------------------

           IN:                                      IN:
           ---                                      ---
             STORAGE =       24886.0801               STORAGE =          13.0914
       CONSTANT HEAD =           0.0000         CONSTANT HEAD =           0.0000
               WELLS =           0.0000                 WELLS =           0.0000
     HEAD DEP BOUNDS =       17574.6348       HEAD DEP BOUNDS =         547.8729

            TOTAL IN =       42460.7148              TOTAL IN =         560.9643

          OUT:                                     OUT:
          ----                                     ----
             STORAGE =           0.0000               STORAGE =           0.0000
       CONSTANT HEAD =           0.0000         CONSTANT HEAD =           0.0000
               WELLS =           0.0000                 WELLS =           0.0000
     HEAD DEP BOUNDS =       42463.2734       HEAD DEP BOUNDS =         560.9958

           TOTAL OUT =       42463.2734             TOTAL OUT =         560.9958

            IN - OUT =          -2.5586              IN - OUT =      -3.1494E-02

 PERCENT DISCREPANCY =          -0.01     PERCENT DISCREPANCY =          -0.01






         TIME SUMMARY AT END OF TIME STEP   45 IN STRESS PERIOD    2
                    SECONDS     MINUTES      HOURS       DAYS        YEARS
                    -----------------------------------------------------------
   TIME STEP LENGTH  86400.      1440.0      24.000      1.0000     2.73785E-03
 STRESS PERIOD TIME 3.88800E+06  64800.      1080.0      45.000     0.12320    
         TOTAL TIME 3.97440E+06  66240.      1104.0      46.000     0.12594    
1

 SOLVING FOR HEAD 
     2 ITERATIONS FOR TIME STEP  46 IN STRESS PERIOD    2

 OUTPUT CONTROL FOR STRESS PERIOD    2   TIME STEP   46
    SAVE HEAD FOR ALL LAYERS
    SAVE DRAWDOWN FOR ALL LAYERS
    SAVE BUDGET
    PRINT HEAD FOR ALL LAYERS
    PRINT BUDGET
 UBDSV1 SAVING "         STORAGE" ON UNIT  53 AT TIME STEP 46, STRESS PERIOD   2
 UBDSV2 SAVING "   CONSTANT HEAD" ON UNIT  53 AT TIME STEP 46, STRESS PERIOD   2
 UBDSV1 SAVING "FLOW RIGHT FACE " ON UNIT  53 AT TIME STEP 46, STRESS PERIOD   2
 UBDSV1 SAVING "FLOW FRONT FACE " ON UNIT  53 AT TIME STEP 46, STRESS PERIOD   2
1
              HEAD IN LAYER   1 AT END OF TIME STEP  46 IN STRESS PERIOD    2
  ---------------------------------------------------------------------------

            1           2           3           4           5           6           7           8           9          10
 ........................................................................................................................
   1    9.991       8.894       7.795       6.694       5.589       4.480       3.367       2.251       1.132      1.1206E-02
   2    9.991       8.894       7.795       6.694       5.589       4.480       3.368       2.251       1.132      1.1207E-02
   3    9.991       8.894       7.795       6.694       5.589       4.480       3.368       2.251       1.132      1.1207E-02
   4    9.991       8.894       7.795       6.694       5.589       4.480       3.368       2.251       1.132      1.1207E-02
   5    9.991       8.894       7.795       6.694       5.589       4.480       3.368       2.251       1.132      1.1207E-02
   6    9.991       8.894       7.795       6.694       5.589       4.480       3.368       2.251       1.132      1.1207E-02
   7    9.991       8.894       7.795       6.694       5.589       4.480       3.368       2.251       1.132      1.1207E-02
   8    9.991       8.894       7.795       6.694       5.589       4.480       3.368       2.251       1.132      1.1207E-02
   9    9.991       8.894       7.795       6.694       5.589       4.480       3.368       2.251       1.132      1.1207E-02
  10    9.991       8.894       7.795       6.694       5.589       4.480       3.368       2.251       1.132      1.1207E-02

 HEAD WILL BE SAVED ON UNIT   51 AT END OF TIME STEP   46, STRESS PERIOD    2

 DRAWDOWN WILL BE SAVED ON UNIT   52 AT END OF TIME STEP   46, STRESS PERIOD    2
1
  VOLUMETRIC BUDGET FOR ENTIRE MODEL AT END OF TIME STEP   46, STRESS PERIOD   2
  ------------------------------------------------------------------------------

     CUMULATIVE VOLUMES      L**3       RATES FOR THIS TIME STEP      L**3/T
     ------------------                 ------------------------

           IN:                                      IN:
           ---                                      ---
             STORAGE =       24897.3613               STORAGE =          11.2804
       CONSTANT HEAD =           0.0000         CONSTANT HEAD =           0.0000
               WELLS =           0.0000                 WELLS =           0.0000
     HEAD DEP BOUNDS =       18123.1797       HEAD DEP BOUNDS =         548.5446

            TOTAL IN =       43020.5391              TOTAL IN =         559.8250

          OUT:                                     OUT:
          ----                                     ----
             STORAGE =           0.0000               STORAGE =           0.0000
       CONSTANT HEAD =           0.0000         CONSTANT HEAD =           0.0000
               WELLS =           0.0000                 WELLS =           0.0000
     HEAD DEP BOUNDS =       43023.6094       HEAD DEP BOUNDS =         560.3362

           TOTAL OUT =       43023.6094             TOTAL OUT =         560.3362

            IN - OUT =          -3.0703              IN - OUT =          -0.5112

 PERCENT DISCREPANCY =          -0.01     PERCENT DISCREPANCY =          -0.09






         TIME SUMMARY AT END OF TIME STEP   46 IN STRESS PERIOD    2
                    SECONDS     MINUTES      HOURS       DAYS        YEARS
                    -----------------------------------------------------------
   TIME STEP LENGTH  86400.      1440.0      24.000      1.0000     2.73785E-03
 STRESS PERIOD TIME 3.97440E+06  66240.      1104.0      46.000     0.12594    
         TOTAL TIME 4.06080E+06  67680.      1128.0      47.000     0.12868    
1

 SOLVING FOR HEAD 
     2 ITERATIONS FOR TIME STEP  47 IN STRESS PERIOD    2

 OUTPUT CONTROL FOR STRESS PERIOD    2   TIME STEP   47
    SAVE HEAD FOR ALL LAYERS
    SAVE DRAWDOWN FOR ALL LAYERS
    SAVE BUDGET
    PRINT HEAD FOR ALL LAYERS
    PRINT BUDGET
 UBDSV1 SAVING "         STORAGE" ON UNIT  53 AT TIME STEP 47, STRESS PERIOD   2
 UBDSV2 SAVING "   CONSTANT HEAD" ON UNIT  53 AT TIME STEP 47, STRESS PERIOD   2
 UBDSV1 SAVING "FLOW RIGHT FACE " ON UNIT  53 AT TIME STEP 47, STRESS PERIOD   2
 UBDSV1 SAVING "FLOW FRONT FACE " ON UNIT  53 AT TIME STEP 47, STRESS PERIOD   2
1
              HEAD IN LAYER   1 AT END OF TIME STEP  47 IN STRESS PERIOD    2
  ---------------------------------------------------------------------------

            1           2           3           4           5           6           7           8           9          10
 ........................................................................................................................
   1    9.991       8.893       7.793       6.691       5.586       4.477       3.364       2.249       1.131      1.1194E-02
   2    9.991       8.893       7.793       6.691       5.586       4.477       3.364       2.249       1.131      1.1194E-02
   3    9.991       8.893       7.793       6.691       5.586       4.477       3.364       2.249       1.131      1.1195E-02
   4    9.991       8.893       7.793       6.691       5.586       4.477       3.364       2.249       1.131      1.1195E-02
   5    9.991       8.893       7.793       6.691       5.586       4.477       3.364       2.249       1.131      1.1195E-02
   6    9.991       8.893       7.793       6.691       5.586       4.477       3.364       2.249       1.131      1.1195E-02
   7    9.991       8.893       7.793       6.691       5.586       4.477       3.364       2.249       1.131      1.1195E-02
   8    9.991       8.893       7.793       6.691       5.586       4.477       3.364       2.249       1.131      1.1195E-02
   9    9.991       8.893       7.793       6.691       5.586       4.477       3.364       2.249       1.131      1.1195E-02
  10    9.991       8.893       7.793       6.691       5.586       4.477       3.364       2.249       1.131      1.1195E-02

 HEAD WILL BE SAVED ON UNIT   51 AT END OF TIME STEP   47, STRESS PERIOD    2

 DRAWDOWN WILL BE SAVED ON UNIT   52 AT END OF TIME STEP   47, STRESS PERIOD    2
1
  VOLUMETRIC BUDGET FOR ENTIRE MODEL AT END OF TIME STEP   47, STRESS PERIOD   2
  ------------------------------------------------------------------------------

     CUMULATIVE VOLUMES      L**3       RATES FOR THIS TIME STEP      L**3/T
     ------------------                 ------------------------

           IN:                                      IN:
           ---                                      ---
             STORAGE =       24907.4785               STORAGE =          10.1165
       CONSTANT HEAD =           0.0000         CONSTANT HEAD =           0.0000
               WELLS =           0.0000                 WELLS =           0.0000
     HEAD DEP BOUNDS =       18672.3262       HEAD DEP BOUNDS =         549.1472

            TOTAL IN =       43579.8047              TOTAL IN =         559.2637

          OUT:                                     OUT:
          ----                                     ----
             STORAGE =           0.0000               STORAGE =           0.0000
       CONSTANT HEAD =           0.0000         CONSTANT HEAD =           0.0000
               WELLS =           0.0000                 WELLS =           0.0000
     HEAD DEP BOUNDS =       43583.3359       HEAD DEP BOUNDS =         559.7273

           TOTAL OUT =       43583.3359             TOTAL OUT =         559.7273

            IN - OUT =          -3.5312              IN - OUT =          -0.4636

 PERCENT DISCREPANCY =          -0.01     PERCENT DISCREPANCY =          -0.08






         TIME SUMMARY AT END OF TIME STEP   47 IN STRESS PERIOD    2
                    SECONDS     MINUTES      HOURS       DAYS        YEARS
                    -----------------------------------------------------------
   TIME STEP LENGTH  86400.      1440.0      24.000      1.0000     2.73785E-03
 STRESS PERIOD TIME 4.06080E+06  67680.      1128.0      47.000     0.12868    
         TOTAL TIME 4.14720E+06  69120.      1152.0      48.000     0.13142    
1

 SOLVING FOR HEAD 
     2 ITERATIONS FOR TIME STEP  48 IN STRESS PERIOD    2

 OUTPUT CONTROL FOR STRESS PERIOD    2   TIME STEP   48
    SAVE HEAD FOR ALL LAYERS
    SAVE DRAWDOWN FOR ALL LAYERS
    SAVE BUDGET
    PRINT HEAD FOR ALL LAYERS
    PRINT BUDGET
 UBDSV1 SAVING "         STORAGE" ON UNIT  53 AT TIME STEP 48, STRESS PERIOD   2
 UBDSV2 SAVING "   CONSTANT HEAD" ON UNIT  53 AT TIME STEP 48, STRESS PERIOD   2
 UBDSV1 SAVING "FLOW RIGHT FACE " ON UNIT  53 AT TIME STEP 48, STRESS PERIOD   2
 UBDSV1 SAVING "FLOW FRONT FACE " ON UNIT  53 AT TIME STEP 48, STRESS PERIOD   2
1
              HEAD IN LAYER   1 AT END OF TIME STEP  48 IN STRESS PERIOD    2
  ---------------------------------------------------------------------------

            1           2           3           4           5           6           7           8           9          10
 ........................................................................................................................
   1    9.991       8.891       7.791       6.688       5.583       4.474       3.362       2.247       1.129      1.1183E-02
   2    9.991       8.891       7.791       6.688       5.583       4.474       3.362       2.247       1.129      1.1183E-02
   3    9.991       8.891       7.791       6.688       5.583       4.474       3.362       2.247       1.130      1.1184E-02
   4    9.991       8.891       7.791       6.688       5.583       4.474       3.362       2.247       1.130      1.1184E-02
   5    9.991       8.891       7.791       6.688       5.583       4.474       3.362       2.247       1.130      1.1184E-02
   6    9.991       8.891       7.791       6.688       5.583       4.474       3.362       2.247       1.130      1.1184E-02
   7    9.991       8.891       7.791       6.688       5.583       4.474       3.362       2.247       1.130      1.1184E-02
   8    9.991       8.891       7.791       6.688       5.583       4.474       3.362       2.247       1.130      1.1184E-02
   9    9.991       8.891       7.791       6.688       5.583       4.474       3.362       2.247       1.130      1.1184E-02
  10    9.991       8.891       7.791       6.688       5.583       4.474       3.362       2.247       1.130      1.1184E-02

 HEAD WILL BE SAVED ON UNIT   51 AT END OF TIME STEP   48, STRESS PERIOD    2

 DRAWDOWN WILL BE SAVED ON UNIT   52 AT END OF TIME STEP   48, STRESS PERIOD    2
1
  VOLUMETRIC BUDGET FOR ENTIRE MODEL AT END OF TIME STEP   48, STRESS PERIOD   2
  ------------------------------------------------------------------------------

     CUMULATIVE VOLUMES      L**3       RATES FOR THIS TIME STEP      L**3/T
     ------------------                 ------------------------

           IN:                                      IN:
           ---                                      ---
             STORAGE =       24916.5508               STORAGE =           9.0721
       CONSTANT HEAD =           0.0000         CONSTANT HEAD =           0.0000
               WELLS =           0.0000                 WELLS =           0.0000
     HEAD DEP BOUNDS =       19222.0137       HEAD DEP BOUNDS =         549.6874

            TOTAL IN =       44138.5625              TOTAL IN =         558.7595

          OUT:                                     OUT:
          ----                                     ----
             STORAGE =           0.0000               STORAGE =           0.0000
       CONSTANT HEAD =           0.0000         CONSTANT HEAD =           0.0000
               WELLS =           0.0000                 WELLS =           0.0000
     HEAD DEP BOUNDS =       44142.5156       HEAD DEP BOUNDS =         559.1807

           TOTAL OUT =       44142.5156             TOTAL OUT =         559.1807

            IN - OUT =          -3.9531              IN - OUT =          -0.4211

 PERCENT DISCREPANCY =          -0.01     PERCENT DISCREPANCY =          -0.08






         TIME SUMMARY AT END OF TIME STEP   48 IN STRESS PERIOD    2
                    SECONDS     MINUTES      HOURS       DAYS        YEARS
                    -----------------------------------------------------------
   TIME STEP LENGTH  86400.      1440.0      24.000      1.0000     2.73785E-03
 STRESS PERIOD TIME 4.14720E+06  69120.      1152.0      48.000     0.13142    
         TOTAL TIME 4.23360E+06  70560.      1176.0      49.000     0.13415    
1

 SOLVING FOR HEAD 
     2 ITERATIONS FOR TIME STEP  49 IN STRESS PERIOD    2

 OUTPUT CONTROL FOR STRESS PERIOD    2   TIME STEP   49
    SAVE HEAD FOR ALL LAYERS
    SAVE DRAWDOWN FOR ALL LAYERS
    SAVE BUDGET
    PRINT HEAD FOR ALL LAYERS
    PRINT BUDGET
 UBDSV1 SAVING "         STORAGE" ON UNIT  53 AT TIME STEP 49, STRESS PERIOD   2
 UBDSV2 SAVING "   CONSTANT HEAD" ON UNIT  53 AT TIME STEP 49, STRESS PERIOD   2
 UBDSV1 SAVING "FLOW RIGHT FACE " ON UNIT  53 AT TIME STEP 49, STRESS PERIOD   2
 UBDSV1 SAVING "FLOW FRONT FACE " ON UNIT  53 AT TIME STEP 49, STRESS PERIOD   2
1
              HEAD IN LAYER   1 AT END OF TIME STEP  49 IN STRESS PERIOD    2
  ---------------------------------------------------------------------------

            1           2           3           4           5           6           7           8           9          10
 ........................................................................................................................
   1    9.991       8.890       7.789       6.686       5.580       4.471       3.359       2.245       1.128      1.1173E-02
   2    9.991       8.890       7.789       6.686       5.580       4.471       3.359       2.245       1.128      1.1174E-02
   3    9.991       8.890       7.789       6.686       5.580       4.471       3.359       2.245       1.129      1.1174E-02
   4    9.991       8.890       7.789       6.686       5.580       4.471       3.359       2.245       1.129      1.1174E-02
   5    9.991       8.890       7.789       6.686       5.580       4.471       3.359       2.245       1.129      1.1174E-02
   6    9.991       8.890       7.789       6.686       5.580       4.471       3.359       2.245       1.129      1.1174E-02
   7    9.991       8.890       7.789       6.686       5.580       4.471       3.359       2.245       1.129      1.1174E-02
   8    9.991       8.890       7.789       6.686       5.580       4.471       3.359       2.245       1.129      1.1174E-02
   9    9.991       8.890       7.789       6.686       5.580       4.471       3.359       2.245       1.129      1.1174E-02
  10    9.991       8.890       7.789       6.686       5.580       4.471       3.359       2.245       1.129      1.1174E-02

 HEAD WILL BE SAVED ON UNIT   51 AT END OF TIME STEP   49, STRESS PERIOD    2

 DRAWDOWN WILL BE SAVED ON UNIT   52 AT END OF TIME STEP   49, STRESS PERIOD    2
1
  VOLUMETRIC BUDGET FOR ENTIRE MODEL AT END OF TIME STEP   49, STRESS PERIOD   2
  ------------------------------------------------------------------------------

     CUMULATIVE VOLUMES      L**3       RATES FOR THIS TIME STEP      L**3/T
     ------------------                 ------------------------

           IN:                                      IN:
           ---                                      ---
             STORAGE =       24924.6875               STORAGE =           8.1362
       CONSTANT HEAD =           0.0000         CONSTANT HEAD =           0.0000
               WELLS =           0.0000                 WELLS =           0.0000
     HEAD DEP BOUNDS =       19772.1855       HEAD DEP BOUNDS =         550.1717

            TOTAL IN =       44696.8750              TOTAL IN =         558.3079

          OUT:                                     OUT:
          ----                                     ----
             STORAGE =           0.0000               STORAGE =           0.0000
       CONSTANT HEAD =           0.0000         CONSTANT HEAD =           0.0000
               WELLS =           0.0000                 WELLS =           0.0000
     HEAD DEP BOUNDS =       44701.2070       HEAD DEP BOUNDS =         558.6902

           TOTAL OUT =       44701.2070             TOTAL OUT =         558.6902

            IN - OUT =          -4.3320              IN - OUT =          -0.3824

 PERCENT DISCREPANCY =          -0.01     PERCENT DISCREPANCY =          -0.07






         TIME SUMMARY AT END OF TIME STEP   49 IN STRESS PERIOD    2
                    SECONDS     MINUTES      HOURS       DAYS        YEARS
                    -----------------------------------------------------------
   TIME STEP LENGTH  86400.      1440.0      24.000      1.0000     2.73785E-03
 STRESS PERIOD TIME 4.23360E+06  70560.      1176.0      49.000     0.13415    
         TOTAL TIME 4.32000E+06  72000.      1200.0      50.000     0.13689    
1

 SOLVING FOR HEAD 
     2 ITERATIONS FOR TIME STEP  50 IN STRESS PERIOD    2

 OUTPUT CONTROL FOR STRESS PERIOD    2   TIME STEP   50
    SAVE HEAD FOR ALL LAYERS
    SAVE DRAWDOWN FOR ALL LAYERS
    SAVE BUDGET
    PRINT HEAD FOR ALL LAYERS
    PRINT BUDGET
 UBDSV1 SAVING "         STORAGE" ON UNIT  53 AT TIME STEP 50, STRESS PERIOD   2
 UBDSV2 SAVING "   CONSTANT HEAD" ON UNIT  53 AT TIME STEP 50, STRESS PERIOD   2
 UBDSV1 SAVING "FLOW RIGHT FACE " ON UNIT  53 AT TIME STEP 50, STRESS PERIOD   2
 UBDSV1 SAVING "FLOW FRONT FACE " ON UNIT  53 AT TIME STEP 50, STRESS PERIOD   2
1
              HEAD IN LAYER   1 AT END OF TIME STEP  50 IN STRESS PERIOD    2
  ---------------------------------------------------------------------------

            1           2           3           4           5           6           7           8           9          10
 ........................................................................................................................
   1    9.991       8.890       7.787       6.683       5.577       4.468       3.357       2.243       1.128      1.1164E-02
   2    9.991       8.890       7.787       6.684       5.577       4.468       3.357       2.243       1.128      1.1165E-02
   3    9.991       8.890       7.787       6.684       5.577       4.468       3.357       2.243       1.128      1.1165E-02
   4    9.991       8.890       7.787       6.684       5.577       4.468       3.357       2.243       1.128      1.1165E-02
   5    9.991       8.890       7.787       6.684       5.577       4.469       3.357       2.243       1.128      1.1165E-02
   6    9.991       8.890       7.787       6.684       5.577       4.469       3.357       2.243       1.128      1.1165E-02
   7    9.991       8.890       7.787       6.684       5.577       4.468       3.357       2.243       1.128      1.1165E-02
   8    9.991       8.890       7.787       6.684       5.577       4.468       3.357       2.243       1.128      1.1165E-02
   9    9.991       8.890       7.787       6.683       5.577       4.468       3.357       2.243       1.128      1.1165E-02
  10    9.991       8.890       7.787       6.683       5.577       4.468       3.357       2.243       1.128      1.1165E-02

 HEAD WILL BE SAVED ON UNIT   51 AT END OF TIME STEP   50, STRESS PERIOD    2

 DRAWDOWN WILL BE SAVED ON UNIT   52 AT END OF TIME STEP   50, STRESS PERIOD    2
1
  VOLUMETRIC BUDGET FOR ENTIRE MODEL AT END OF TIME STEP   50, STRESS PERIOD   2
  ------------------------------------------------------------------------------

     CUMULATIVE VOLUMES      L**3       RATES FOR THIS TIME STEP      L**3/T
     ------------------                 ------------------------

           IN:                                      IN:
           ---                                      ---
             STORAGE =       24931.9844               STORAGE =           7.2962
       CONSTANT HEAD =           0.0000         CONSTANT HEAD =           0.0000
               WELLS =           0.0000                 WELLS =           0.0000
     HEAD DEP BOUNDS =       20322.7910       HEAD DEP BOUNDS =         550.6059

            TOTAL IN =       45254.7734              TOTAL IN =         557.9022

          OUT:                                     OUT:
          ----                                     ----
             STORAGE =           0.0000               STORAGE =           0.0000
       CONSTANT HEAD =           0.0000         CONSTANT HEAD =           0.0000
               WELLS =           0.0000                 WELLS =           0.0000
     HEAD DEP BOUNDS =       45259.4570       HEAD DEP BOUNDS =         558.2503

           TOTAL OUT =       45259.4570             TOTAL OUT =         558.2503

            IN - OUT =          -4.6836              IN - OUT =          -0.3481

 PERCENT DISCREPANCY =          -0.01     PERCENT DISCREPANCY =          -0.06






         TIME SUMMARY AT END OF TIME STEP   50 IN STRESS PERIOD    2
                    SECONDS     MINUTES      HOURS       DAYS        YEARS
                    -----------------------------------------------------------
   TIME STEP LENGTH  86400.      1440.0      24.000      1.0000     2.73785E-03
 STRESS PERIOD TIME 4.32000E+06  72000.      1200.0      50.000     0.13689    
         TOTAL TIME 4.40640E+06  73440.      1224.0      51.000     0.13963    
1

 SOLVING FOR HEAD 
     2 ITERATIONS FOR TIME STEP  51 IN STRESS PERIOD    2

 OUTPUT CONTROL FOR STRESS PERIOD    2   TIME STEP   51
    SAVE HEAD FOR ALL LAYERS
    SAVE DRAWDOWN FOR ALL LAYERS
    SAVE BUDGET
    PRINT HEAD FOR ALL LAYERS
    PRINT BUDGET
 UBDSV1 SAVING "         STORAGE" ON UNIT  53 AT TIME STEP 51, STRESS PERIOD   2
 UBDSV2 SAVING "   CONSTANT HEAD" ON UNIT  53 AT TIME STEP 51, STRESS PERIOD   2
 UBDSV1 SAVING "FLOW RIGHT FACE " ON UNIT  53 AT TIME STEP 51, STRESS PERIOD   2
 UBDSV1 SAVING "FLOW FRONT FACE " ON UNIT  53 AT TIME STEP 51, STRESS PERIOD   2
1
              HEAD IN LAYER   1 AT END OF TIME STEP  51 IN STRESS PERIOD    2
  ---------------------------------------------------------------------------

            1           2           3           4           5           6           7           8           9          10
 ........................................................................................................................
   1    9.991       8.889       7.786       6.681       5.575       4.466       3.355       2.242       1.127      1.1156E-02
   2    9.991       8.889       7.786       6.682       5.575       4.466       3.355       2.242       1.127      1.1157E-02
   3    9.991       8.889       7.786       6.682       5.575       4.466       3.355       2.242       1.127      1.1157E-02
   4    9.991       8.889       7.786       6.682       5.575       4.466       3.355       2.242       1.127      1.1157E-02
   5    9.991       8.889       7.786       6.682       5.575       4.466       3.355       2.242       1.127      1.1157E-02
   6    9.991       8.889       7.786       6.682       5.575       4.466       3.355       2.242       1.127      1.1157E-02
   7    9.991       8.889       7.786       6.682       5.575       4.466       3.355       2.242       1.127      1.1157E-02
   8    9.991       8.889       7.786       6.682       5.575       4.466       3.355       2.242       1.127      1.1157E-02
   9    9.991       8.889       7.786       6.681       5.575       4.466       3.355       2.242       1.127      1.1157E-02
  10    9.991       8.889       7.786       6.681       5.575       4.466       3.355       2.242       1.127      1.1157E-02

 HEAD WILL BE SAVED ON UNIT   51 AT END OF TIME STEP   51, STRESS PERIOD    2

 DRAWDOWN WILL BE SAVED ON UNIT   52 AT END OF TIME STEP   51, STRESS PERIOD    2
1
  VOLUMETRIC BUDGET FOR ENTIRE MODEL AT END OF TIME STEP   51, STRESS PERIOD   2
  ------------------------------------------------------------------------------

     CUMULATIVE VOLUMES      L**3       RATES FOR THIS TIME STEP      L**3/T
     ------------------                 ------------------------

           IN:                                      IN:
           ---                                      ---
             STORAGE =       24938.5273               STORAGE =           6.5429
       CONSTANT HEAD =           0.0000         CONSTANT HEAD =           0.0000
               WELLS =           0.0000                 WELLS =           0.0000
     HEAD DEP BOUNDS =       20873.7871       HEAD DEP BOUNDS =         550.9952

            TOTAL IN =       45812.3125              TOTAL IN =         557.5381

          OUT:                                     OUT:
          ----                                     ----
             STORAGE =           0.0000               STORAGE =           0.0000
       CONSTANT HEAD =           0.0000         CONSTANT HEAD =           0.0000
               WELLS =           0.0000                 WELLS =           0.0000
     HEAD DEP BOUNDS =       45817.3125       HEAD DEP BOUNDS =         557.8558

           TOTAL OUT =       45817.3125             TOTAL OUT =         557.8558

            IN - OUT =          -5.0000              IN - OUT =          -0.3176

 PERCENT DISCREPANCY =          -0.01     PERCENT DISCREPANCY =          -0.06






         TIME SUMMARY AT END OF TIME STEP   51 IN STRESS PERIOD    2
                    SECONDS     MINUTES      HOURS       DAYS        YEARS
                    -----------------------------------------------------------
   TIME STEP LENGTH  86400.      1440.0      24.000      1.0000     2.73785E-03
 STRESS PERIOD TIME 4.40640E+06  73440.      1224.0      51.000     0.13963    
         TOTAL TIME 4.49280E+06  74880.      1248.0      52.000     0.14237    
1

 SOLVING FOR HEAD 
     2 ITERATIONS FOR TIME STEP  52 IN STRESS PERIOD    2

 OUTPUT CONTROL FOR STRESS PERIOD    2   TIME STEP   52
    SAVE HEAD FOR ALL LAYERS
    SAVE DRAWDOWN FOR ALL LAYERS
    SAVE BUDGET
    PRINT HEAD FOR ALL LAYERS
    PRINT BUDGET
 UBDSV1 SAVING "         STORAGE" ON UNIT  53 AT TIME STEP 52, STRESS PERIOD   2
 UBDSV2 SAVING "   CONSTANT HEAD" ON UNIT  53 AT TIME STEP 52, STRESS PERIOD   2
 UBDSV1 SAVING "FLOW RIGHT FACE " ON UNIT  53 AT TIME STEP 52, STRESS PERIOD   2
 UBDSV1 SAVING "FLOW FRONT FACE " ON UNIT  53 AT TIME STEP 52, STRESS PERIOD   2
1
              HEAD IN LAYER   1 AT END OF TIME STEP  52 IN STRESS PERIOD    2
  ---------------------------------------------------------------------------

            1           2           3           4           5           6           7           8           9          10
 ........................................................................................................................
   1    9.991       8.888       7.785       6.680       5.573       4.464       3.353       2.240       1.126      1.1149E-02
   2    9.991       8.888       7.785       6.680       5.573       4.464       3.353       2.240       1.126      1.1150E-02
   3    9.991       8.888       7.785       6.680       5.573       4.464       3.353       2.240       1.126      1.1150E-02
   4    9.991       8.888       7.785       6.680       5.573       4.464       3.353       2.240       1.126      1.1150E-02
   5    9.991       8.888       7.785       6.680       5.573       4.464       3.353       2.240       1.126      1.1150E-02
   6    9.991       8.888       7.785       6.680       5.573       4.464       3.353       2.240       1.126      1.1150E-02
   7    9.991       8.888       7.785       6.680       5.573       4.464       3.353       2.240       1.126      1.1150E-02
   8    9.991       8.888       7.785       6.680       5.573       4.464       3.353       2.240       1.126      1.1150E-02
   9    9.991       8.888       7.785       6.680       5.573       4.464       3.353       2.240       1.126      1.1150E-02
  10    9.991       8.888       7.785       6.680       5.573       4.464       3.353       2.240       1.126      1.1150E-02

 HEAD WILL BE SAVED ON UNIT   51 AT END OF TIME STEP   52, STRESS PERIOD    2

 DRAWDOWN WILL BE SAVED ON UNIT   52 AT END OF TIME STEP   52, STRESS PERIOD    2
1
  VOLUMETRIC BUDGET FOR ENTIRE MODEL AT END OF TIME STEP   52, STRESS PERIOD   2
  ------------------------------------------------------------------------------

     CUMULATIVE VOLUMES      L**3       RATES FOR THIS TIME STEP      L**3/T
     ------------------                 ------------------------

           IN:                                      IN:
           ---                                      ---
             STORAGE =       24944.3945               STORAGE =           5.8681
       CONSTANT HEAD =           0.0000         CONSTANT HEAD =           0.0000
               WELLS =           0.0000                 WELLS =           0.0000
     HEAD DEP BOUNDS =       21425.1699       HEAD DEP BOUNDS =         551.3829

            TOTAL IN =       46369.5625              TOTAL IN =         557.2510

          OUT:                                     OUT:
          ----                                     ----
             STORAGE =           0.0000               STORAGE =           0.0000
       CONSTANT HEAD =           0.0000         CONSTANT HEAD =           0.0000
               WELLS =           0.0000                 WELLS =           0.0000
     HEAD DEP BOUNDS =       46374.8125       HEAD DEP BOUNDS =         557.5019

           TOTAL OUT =       46374.8125             TOTAL OUT =         557.5019

            IN - OUT =          -5.2500              IN - OUT =          -0.2509

 PERCENT DISCREPANCY =          -0.01     PERCENT DISCREPANCY =          -0.05






         TIME SUMMARY AT END OF TIME STEP   52 IN STRESS PERIOD    2
                    SECONDS     MINUTES      HOURS       DAYS        YEARS
                    -----------------------------------------------------------
   TIME STEP LENGTH  86400.      1440.0      24.000      1.0000     2.73785E-03
 STRESS PERIOD TIME 4.49280E+06  74880.      1248.0      52.000     0.14237    
         TOTAL TIME 4.57920E+06  76320.      1272.0      53.000     0.14511    
1

 SOLVING FOR HEAD 
     2 ITERATIONS FOR TIME STEP  53 IN STRESS PERIOD    2

 OUTPUT CONTROL FOR STRESS PERIOD    2   TIME STEP   53
    SAVE HEAD FOR ALL LAYERS
    SAVE DRAWDOWN FOR ALL LAYERS
    SAVE BUDGET
    PRINT HEAD FOR ALL LAYERS
    PRINT BUDGET
 UBDSV1 SAVING "         STORAGE" ON UNIT  53 AT TIME STEP 53, STRESS PERIOD   2
 UBDSV2 SAVING "   CONSTANT HEAD" ON UNIT  53 AT TIME STEP 53, STRESS PERIOD   2
 UBDSV1 SAVING "FLOW RIGHT FACE " ON UNIT  53 AT TIME STEP 53, STRESS PERIOD   2
 UBDSV1 SAVING "FLOW FRONT FACE " ON UNIT  53 AT TIME STEP 53, STRESS PERIOD   2
1
              HEAD IN LAYER   1 AT END OF TIME STEP  53 IN STRESS PERIOD    2
  ---------------------------------------------------------------------------

            1           2           3           4           5           6           7           8           9          10
 ........................................................................................................................
   1    9.991       8.887       7.783       6.678       5.571       4.462       3.352       2.239       1.125      1.1143E-02
   2    9.991       8.887       7.783       6.678       5.571       4.462       3.352       2.239       1.125      1.1144E-02
   3    9.991       8.887       7.783       6.678       5.571       4.462       3.352       2.239       1.125      1.1144E-02
   4    9.991       8.887       7.783       6.678       5.571       4.462       3.352       2.239       1.125      1.1144E-02
   5    9.991       8.887       7.783       6.678       5.571       4.462       3.352       2.239       1.125      1.1144E-02
   6    9.991       8.887       7.783       6.678       5.571       4.462       3.352       2.239       1.125      1.1144E-02
   7    9.991       8.887       7.783       6.678       5.571       4.462       3.352       2.239       1.125      1.1144E-02
   8    9.991       8.887       7.783       6.678       5.571       4.462       3.352       2.239       1.125      1.1144E-02
   9    9.991       8.887       7.783       6.678       5.571       4.462       3.352       2.239       1.125      1.1144E-02
  10    9.991       8.887       7.783       6.678       5.571       4.462       3.352       2.239       1.125      1.1144E-02

 HEAD WILL BE SAVED ON UNIT   51 AT END OF TIME STEP   53, STRESS PERIOD    2

 DRAWDOWN WILL BE SAVED ON UNIT   52 AT END OF TIME STEP   53, STRESS PERIOD    2
1
  VOLUMETRIC BUDGET FOR ENTIRE MODEL AT END OF TIME STEP   53, STRESS PERIOD   2
  ------------------------------------------------------------------------------

     CUMULATIVE VOLUMES      L**3       RATES FOR THIS TIME STEP      L**3/T
     ------------------                 ------------------------

           IN:                                      IN:
           ---                                      ---
             STORAGE =       24949.6562               STORAGE =           5.2624
       CONSTANT HEAD =           0.0000         CONSTANT HEAD =           0.0000
               WELLS =           0.0000                 WELLS =           0.0000
     HEAD DEP BOUNDS =       21976.8652       HEAD DEP BOUNDS =         551.6960

            TOTAL IN =       46926.5234              TOTAL IN =         556.9584

          OUT:                                     OUT:
          ----                                     ----
             STORAGE =           0.0000               STORAGE =           0.0000
       CONSTANT HEAD =           0.0000         CONSTANT HEAD =           0.0000
               WELLS =           0.0000                 WELLS =           0.0000
     HEAD DEP BOUNDS =       46931.9961       HEAD DEP BOUNDS =         557.1845

           TOTAL OUT =       46931.9961             TOTAL OUT =         557.1845

            IN - OUT =          -5.4727              IN - OUT =          -0.2261

 PERCENT DISCREPANCY =          -0.01     PERCENT DISCREPANCY =          -0.04






         TIME SUMMARY AT END OF TIME STEP   53 IN STRESS PERIOD    2
                    SECONDS     MINUTES      HOURS       DAYS        YEARS
                    -----------------------------------------------------------
   TIME STEP LENGTH  86400.      1440.0      24.000      1.0000     2.73785E-03
 STRESS PERIOD TIME 4.57920E+06  76320.      1272.0      53.000     0.14511    
         TOTAL TIME 4.66560E+06  77760.      1296.0      54.000     0.14784    
1

 SOLVING FOR HEAD 
     2 ITERATIONS FOR TIME STEP  54 IN STRESS PERIOD    2

 OUTPUT CONTROL FOR STRESS PERIOD    2   TIME STEP   54
    SAVE HEAD FOR ALL LAYERS
    SAVE DRAWDOWN FOR ALL LAYERS
    SAVE BUDGET
    PRINT HEAD FOR ALL LAYERS
    PRINT BUDGET
 UBDSV1 SAVING "         STORAGE" ON UNIT  53 AT TIME STEP 54, STRESS PERIOD   2
 UBDSV2 SAVING "   CONSTANT HEAD" ON UNIT  53 AT TIME STEP 54, STRESS PERIOD   2
 UBDSV1 SAVING "FLOW RIGHT FACE " ON UNIT  53 AT TIME STEP 54, STRESS PERIOD   2
 UBDSV1 SAVING "FLOW FRONT FACE " ON UNIT  53 AT TIME STEP 54, STRESS PERIOD   2
1
              HEAD IN LAYER   1 AT END OF TIME STEP  54 IN STRESS PERIOD    2
  ---------------------------------------------------------------------------

            1           2           3           4           5           6           7           8           9          10
 ........................................................................................................................
   1    9.991       8.887       7.782       6.677       5.570       4.461       3.350       2.238       1.125      1.1137E-02
   2    9.991       8.887       7.782       6.677       5.570       4.461       3.350       2.238       1.125      1.1138E-02
   3    9.991       8.887       7.782       6.677       5.570       4.461       3.350       2.238       1.125      1.1138E-02
   4    9.991       8.887       7.782       6.677       5.570       4.461       3.350       2.238       1.125      1.1138E-02
   5    9.991       8.887       7.782       6.677       5.570       4.461       3.350       2.238       1.125      1.1138E-02
   6    9.991       8.887       7.782       6.677       5.570       4.461       3.350       2.238       1.125      1.1138E-02
   7    9.991       8.887       7.782       6.677       5.570       4.461       3.350       2.238       1.125      1.1138E-02
   8    9.991       8.887       7.782       6.677       5.570       4.461       3.350       2.238       1.125      1.1138E-02
   9    9.991       8.887       7.782       6.677       5.570       4.461       3.350       2.238       1.125      1.1138E-02
  10    9.991       8.887       7.782       6.677       5.570       4.461       3.350       2.238       1.125      1.1138E-02

 HEAD WILL BE SAVED ON UNIT   51 AT END OF TIME STEP   54, STRESS PERIOD    2

 DRAWDOWN WILL BE SAVED ON UNIT   52 AT END OF TIME STEP   54, STRESS PERIOD    2
1
  VOLUMETRIC BUDGET FOR ENTIRE MODEL AT END OF TIME STEP   54, STRESS PERIOD   2
  ------------------------------------------------------------------------------

     CUMULATIVE VOLUMES      L**3       RATES FOR THIS TIME STEP      L**3/T
     ------------------                 ------------------------

           IN:                                      IN:
           ---                                      ---
             STORAGE =       24954.3750               STORAGE =           4.7189
       CONSTANT HEAD =           0.0000         CONSTANT HEAD =           0.0000
               WELLS =           0.0000                 WELLS =           0.0000
     HEAD DEP BOUNDS =       22528.8418       HEAD DEP BOUNDS =         551.9767

            TOTAL IN =       47483.2188              TOTAL IN =         556.6956

          OUT:                                     OUT:
          ----                                     ----
             STORAGE =           0.0000               STORAGE =           0.0000
       CONSTANT HEAD =           0.0000         CONSTANT HEAD =           0.0000
               WELLS =           0.0000                 WELLS =           0.0000
     HEAD DEP BOUNDS =       47488.8945       HEAD DEP BOUNDS =         556.8998

           TOTAL OUT =       47488.8945             TOTAL OUT =         556.8998

            IN - OUT =          -5.6758              IN - OUT =          -0.2042

 PERCENT DISCREPANCY =          -0.01     PERCENT DISCREPANCY =          -0.04






         TIME SUMMARY AT END OF TIME STEP   54 IN STRESS PERIOD    2
                    SECONDS     MINUTES      HOURS       DAYS        YEARS
                    -----------------------------------------------------------
   TIME STEP LENGTH  86400.      1440.0      24.000      1.0000     2.73785E-03
 STRESS PERIOD TIME 4.66560E+06  77760.      1296.0      54.000     0.14784    
         TOTAL TIME 4.75200E+06  79200.      1320.0      55.000     0.15058    
1

 SOLVING FOR HEAD 
     2 ITERATIONS FOR TIME STEP  55 IN STRESS PERIOD    2

 OUTPUT CONTROL FOR STRESS PERIOD    2   TIME STEP   55
    SAVE HEAD FOR ALL LAYERS
    SAVE DRAWDOWN FOR ALL LAYERS
    SAVE BUDGET
    PRINT HEAD FOR ALL LAYERS
    PRINT BUDGET
 UBDSV1 SAVING "         STORAGE" ON UNIT  53 AT TIME STEP 55, STRESS PERIOD   2
 UBDSV2 SAVING "   CONSTANT HEAD" ON UNIT  53 AT TIME STEP 55, STRESS PERIOD   2
 UBDSV1 SAVING "FLOW RIGHT FACE " ON UNIT  53 AT TIME STEP 55, STRESS PERIOD   2
 UBDSV1 SAVING "FLOW FRONT FACE " ON UNIT  53 AT TIME STEP 55, STRESS PERIOD   2
1
              HEAD IN LAYER   1 AT END OF TIME STEP  55 IN STRESS PERIOD    2
  ---------------------------------------------------------------------------

            1           2           3           4           5           6           7           8           9          10
 ........................................................................................................................
   1    9.991       8.886       7.781       6.675       5.568       4.459       3.349       2.237       1.124      1.1132E-02
   2    9.991       8.886       7.781       6.675       5.568       4.459       3.349       2.237       1.124      1.1133E-02
   3    9.991       8.886       7.781       6.675       5.568       4.459       3.349       2.237       1.124      1.1133E-02
   4    9.991       8.886       7.781       6.675       5.568       4.459       3.349       2.237       1.124      1.1133E-02
   5    9.991       8.886       7.781       6.675       5.568       4.459       3.349       2.237       1.124      1.1133E-02
   6    9.991       8.886       7.781       6.675       5.568       4.459       3.349       2.237       1.124      1.1133E-02
   7    9.991       8.886       7.781       6.675       5.568       4.459       3.349       2.237       1.124      1.1133E-02
   8    9.991       8.886       7.781       6.675       5.568       4.459       3.349       2.237       1.124      1.1133E-02
   9    9.991       8.886       7.781       6.675       5.568       4.459       3.349       2.237       1.124      1.1133E-02
  10    9.991       8.886       7.781       6.675       5.568       4.459       3.349       2.237       1.124      1.1133E-02

 HEAD WILL BE SAVED ON UNIT   51 AT END OF TIME STEP   55, STRESS PERIOD    2

 DRAWDOWN WILL BE SAVED ON UNIT   52 AT END OF TIME STEP   55, STRESS PERIOD    2
1
  VOLUMETRIC BUDGET FOR ENTIRE MODEL AT END OF TIME STEP   55, STRESS PERIOD   2
  ------------------------------------------------------------------------------

     CUMULATIVE VOLUMES      L**3       RATES FOR THIS TIME STEP      L**3/T
     ------------------                 ------------------------

           IN:                                      IN:
           ---                                      ---
             STORAGE =       24958.6074               STORAGE =           4.2322
       CONSTANT HEAD =           0.0000         CONSTANT HEAD =           0.0000
               WELLS =           0.0000                 WELLS =           0.0000
     HEAD DEP BOUNDS =       23081.0703       HEAD DEP BOUNDS =         552.2285

            TOTAL IN =       48039.6797              TOTAL IN =         556.4608

          OUT:                                     OUT:
          ----                                     ----
             STORAGE =           0.0000               STORAGE =           0.0000
       CONSTANT HEAD =           0.0000         CONSTANT HEAD =           0.0000
               WELLS =           0.0000                 WELLS =           0.0000
     HEAD DEP BOUNDS =       48045.5391       HEAD DEP BOUNDS =         556.6445

           TOTAL OUT =       48045.5391             TOTAL OUT =         556.6445

            IN - OUT =          -5.8594              IN - OUT =          -0.1838

 PERCENT DISCREPANCY =          -0.01     PERCENT DISCREPANCY =          -0.03






         TIME SUMMARY AT END OF TIME STEP   55 IN STRESS PERIOD    2
                    SECONDS     MINUTES      HOURS       DAYS        YEARS
                    -----------------------------------------------------------
   TIME STEP LENGTH  86400.      1440.0      24.000      1.0000     2.73785E-03
 STRESS PERIOD TIME 4.75200E+06  79200.      1320.0      55.000     0.15058    
         TOTAL TIME 4.83840E+06  80640.      1344.0      56.000     0.15332    
1

 SOLVING FOR HEAD 
     2 ITERATIONS FOR TIME STEP  56 IN STRESS PERIOD    2

 OUTPUT CONTROL FOR STRESS PERIOD    2   TIME STEP   56
    SAVE HEAD FOR ALL LAYERS
    SAVE DRAWDOWN FOR ALL LAYERS
    SAVE BUDGET
    PRINT HEAD FOR ALL LAYERS
    PRINT BUDGET
 UBDSV1 SAVING "         STORAGE" ON UNIT  53 AT TIME STEP 56, STRESS PERIOD   2
 UBDSV2 SAVING "   CONSTANT HEAD" ON UNIT  53 AT TIME STEP 56, STRESS PERIOD   2
 UBDSV1 SAVING "FLOW RIGHT FACE " ON UNIT  53 AT TIME STEP 56, STRESS PERIOD   2
 UBDSV1 SAVING "FLOW FRONT FACE " ON UNIT  53 AT TIME STEP 56, STRESS PERIOD   2
1
              HEAD IN LAYER   1 AT END OF TIME STEP  56 IN STRESS PERIOD    2
  ---------------------------------------------------------------------------

            1           2           3           4           5           6           7           8           9          10
 ........................................................................................................................
   1    9.991       8.886       7.781       6.674       5.567       4.458       3.348       2.236       1.124      1.1128E-02
   2    9.991       8.886       7.781       6.674       5.567       4.458       3.348       2.236       1.124      1.1128E-02
   3    9.991       8.886       7.781       6.674       5.567       4.458       3.348       2.236       1.124      1.1128E-02
   4    9.991       8.886       7.781       6.674       5.567       4.458       3.348       2.236       1.124      1.1128E-02
   5    9.991       8.886       7.781       6.674       5.567       4.458       3.348       2.236       1.124      1.1128E-02
   6    9.991       8.886       7.781       6.674       5.567       4.458       3.348       2.236       1.124      1.1128E-02
   7    9.991       8.886       7.781       6.674       5.567       4.458       3.348       2.236       1.124      1.1128E-02
   8    9.991       8.886       7.781       6.674       5.567       4.458       3.348       2.236       1.124      1.1128E-02
   9    9.991       8.886       7.780       6.674       5.567       4.458       3.348       2.236       1.124      1.1128E-02
  10    9.991       8.886       7.780       6.674       5.567       4.458       3.348       2.236       1.124      1.1128E-02

 HEAD WILL BE SAVED ON UNIT   51 AT END OF TIME STEP   56, STRESS PERIOD    2

 DRAWDOWN WILL BE SAVED ON UNIT   52 AT END OF TIME STEP   56, STRESS PERIOD    2
1
  VOLUMETRIC BUDGET FOR ENTIRE MODEL AT END OF TIME STEP   56, STRESS PERIOD   2
  ------------------------------------------------------------------------------

     CUMULATIVE VOLUMES      L**3       RATES FOR THIS TIME STEP      L**3/T
     ------------------                 ------------------------

           IN:                                      IN:
           ---                                      ---
             STORAGE =       24962.4023               STORAGE =           3.7952
       CONSTANT HEAD =           0.0000         CONSTANT HEAD =           0.0000
               WELLS =           0.0000                 WELLS =           0.0000
     HEAD DEP BOUNDS =       23633.5254       HEAD DEP BOUNDS =         552.4542

            TOTAL IN =       48595.9297              TOTAL IN =         556.2494

          OUT:                                     OUT:
          ----                                     ----
             STORAGE =           0.0000               STORAGE =           0.0000
       CONSTANT HEAD =           0.0000         CONSTANT HEAD =           0.0000
               WELLS =           0.0000                 WELLS =           0.0000
     HEAD DEP BOUNDS =       48601.9531       HEAD DEP BOUNDS =         556.4156

           TOTAL OUT =       48601.9531             TOTAL OUT =         556.4156

            IN - OUT =          -6.0234              IN - OUT =          -0.1662

 PERCENT DISCREPANCY =          -0.01     PERCENT DISCREPANCY =          -0.03






         TIME SUMMARY AT END OF TIME STEP   56 IN STRESS PERIOD    2
                    SECONDS     MINUTES      HOURS       DAYS        YEARS
                    -----------------------------------------------------------
   TIME STEP LENGTH  86400.      1440.0      24.000      1.0000     2.73785E-03
 STRESS PERIOD TIME 4.83840E+06  80640.      1344.0      56.000     0.15332    
         TOTAL TIME 4.92480E+06  82080.      1368.0      57.000     0.15606    
1

 SOLVING FOR HEAD 
     1 ITERATIONS FOR TIME STEP  57 IN STRESS PERIOD    2

 OUTPUT CONTROL FOR STRESS PERIOD    2   TIME STEP   57
    SAVE HEAD FOR ALL LAYERS
    SAVE DRAWDOWN FOR ALL LAYERS
    SAVE BUDGET
    PRINT HEAD FOR ALL LAYERS
    PRINT BUDGET
 UBDSV1 SAVING "         STORAGE" ON UNIT  53 AT TIME STEP 57, STRESS PERIOD   2
 UBDSV2 SAVING "   CONSTANT HEAD" ON UNIT  53 AT TIME STEP 57, STRESS PERIOD   2
 UBDSV1 SAVING "FLOW RIGHT FACE " ON UNIT  53 AT TIME STEP 57, STRESS PERIOD   2
 UBDSV1 SAVING "FLOW FRONT FACE " ON UNIT  53 AT TIME STEP 57, STRESS PERIOD   2
1
              HEAD IN LAYER   1 AT END OF TIME STEP  57 IN STRESS PERIOD    2
  ---------------------------------------------------------------------------

            1           2           3           4           5           6           7           8           9          10
 ........................................................................................................................
   1    9.991       8.886       7.780       6.673       5.566       4.457       3.347       2.236       1.124      1.1126E-02
   2    9.991       8.886       7.780       6.673       5.566       4.457       3.347       2.236       1.124      1.1126E-02
   3    9.991       8.886       7.780       6.673       5.566       4.457       3.347       2.236       1.124      1.1126E-02
   4    9.991       8.886       7.780       6.673       5.566       4.457       3.347       2.236       1.124      1.1126E-02
   5    9.991       8.886       7.780       6.673       5.566       4.457       3.347       2.236       1.124      1.1126E-02
   6    9.991       8.886       7.780       6.673       5.566       4.457       3.347       2.236       1.124      1.1126E-02
   7    9.991       8.886       7.780       6.673       5.566       4.457       3.347       2.236       1.124      1.1126E-02
   8    9.991       8.886       7.780       6.673       5.566       4.457       3.347       2.236       1.124      1.1126E-02
   9    9.991       8.886       7.780       6.673       5.566       4.457       3.347       2.236       1.124      1.1126E-02
  10    9.991       8.886       7.780       6.673       5.566       4.457       3.347       2.236       1.124      1.1125E-02

 HEAD WILL BE SAVED ON UNIT   51 AT END OF TIME STEP   57, STRESS PERIOD    2

 DRAWDOWN WILL BE SAVED ON UNIT   52 AT END OF TIME STEP   57, STRESS PERIOD    2
1
  VOLUMETRIC BUDGET FOR ENTIRE MODEL AT END OF TIME STEP   57, STRESS PERIOD   2
  ------------------------------------------------------------------------------

     CUMULATIVE VOLUMES      L**3       RATES FOR THIS TIME STEP      L**3/T
     ------------------                 ------------------------

           IN:                                      IN:
           ---                                      ---
             STORAGE =       24965.0488               STORAGE =           2.6471
       CONSTANT HEAD =           0.0000         CONSTANT HEAD =           0.0000
               WELLS =           0.0000                 WELLS =           0.0000
     HEAD DEP BOUNDS =       24186.1367       HEAD DEP BOUNDS =         552.6115

            TOTAL IN =       49151.1875              TOTAL IN =         555.2585

          OUT:                                     OUT:
          ----                                     ----
             STORAGE =           0.0000               STORAGE =           0.0000
       CONSTANT HEAD =           0.0000         CONSTANT HEAD =           0.0000
               WELLS =           0.0000                 WELLS =           0.0000
     HEAD DEP BOUNDS =       49158.2344       HEAD DEP BOUNDS =         556.2814

           TOTAL OUT =       49158.2344             TOTAL OUT =         556.2814

            IN - OUT =          -7.0469              IN - OUT =          -1.0228

 PERCENT DISCREPANCY =          -0.01     PERCENT DISCREPANCY =          -0.18






         TIME SUMMARY AT END OF TIME STEP   57 IN STRESS PERIOD    2
                    SECONDS     MINUTES      HOURS       DAYS        YEARS
                    -----------------------------------------------------------
   TIME STEP LENGTH  86400.      1440.0      24.000      1.0000     2.73785E-03
 STRESS PERIOD TIME 4.92480E+06  82080.      1368.0      57.000     0.15606    
         TOTAL TIME 5.01120E+06  83520.      1392.0      58.000     0.15880    
1

 SOLVING FOR HEAD 
     1 ITERATIONS FOR TIME STEP  58 IN STRESS PERIOD    2

 OUTPUT CONTROL FOR STRESS PERIOD    2   TIME STEP   58
    SAVE HEAD FOR ALL LAYERS
    SAVE DRAWDOWN FOR ALL LAYERS
    SAVE BUDGET
    PRINT HEAD FOR ALL LAYERS
    PRINT BUDGET
 UBDSV1 SAVING "         STORAGE" ON UNIT  53 AT TIME STEP 58, STRESS PERIOD   2
 UBDSV2 SAVING "   CONSTANT HEAD" ON UNIT  53 AT TIME STEP 58, STRESS PERIOD   2
 UBDSV1 SAVING "FLOW RIGHT FACE " ON UNIT  53 AT TIME STEP 58, STRESS PERIOD   2
 UBDSV1 SAVING "FLOW FRONT FACE " ON UNIT  53 AT TIME STEP 58, STRESS PERIOD   2
1
              HEAD IN LAYER   1 AT END OF TIME STEP  58 IN STRESS PERIOD    2
  ---------------------------------------------------------------------------

            1           2           3           4           5           6           7           8           9          10
 ........................................................................................................................
   1    9.991       8.885       7.779       6.673       5.565       4.456       3.346       2.235       1.123      1.1123E-02
   2    9.991       8.885       7.779       6.673       5.565       4.456       3.346       2.235       1.123      1.1123E-02
   3    9.991       8.885       7.779       6.673       5.565       4.456       3.346       2.235       1.123      1.1123E-02
   4    9.991       8.885       7.779       6.673       5.565       4.456       3.346       2.235       1.123      1.1123E-02
   5    9.991       8.885       7.779       6.673       5.565       4.456       3.346       2.235       1.123      1.1123E-02
   6    9.991       8.885       7.779       6.673       5.565       4.456       3.346       2.235       1.123      1.1123E-02
   7    9.991       8.885       7.779       6.673       5.565       4.456       3.346       2.235       1.123      1.1123E-02
   8    9.991       8.885       7.779       6.673       5.565       4.456       3.346       2.235       1.123      1.1123E-02
   9    9.991       8.885       7.779       6.673       5.565       4.456       3.346       2.235       1.123      1.1123E-02
  10    9.991       8.885       7.779       6.673       5.565       4.456       3.346       2.235       1.123      1.1121E-02

 HEAD WILL BE SAVED ON UNIT   51 AT END OF TIME STEP   58, STRESS PERIOD    2

 DRAWDOWN WILL BE SAVED ON UNIT   52 AT END OF TIME STEP   58, STRESS PERIOD    2
1
  VOLUMETRIC BUDGET FOR ENTIRE MODEL AT END OF TIME STEP   58, STRESS PERIOD   2
  ------------------------------------------------------------------------------

     CUMULATIVE VOLUMES      L**3       RATES FOR THIS TIME STEP      L**3/T
     ------------------                 ------------------------

           IN:                                      IN:
           ---                                      ---
             STORAGE =       24967.4805               STORAGE =           2.4320
       CONSTANT HEAD =           0.0000         CONSTANT HEAD =           0.0000
               WELLS =           0.0000                 WELLS =           0.0000
     HEAD DEP BOUNDS =       24738.8926       HEAD DEP BOUNDS =         552.7567

            TOTAL IN =       49706.3750              TOTAL IN =         555.1887

          OUT:                                     OUT:
          ----                                     ----
             STORAGE =           0.0000               STORAGE =           0.0000
       CONSTANT HEAD =           0.0000         CONSTANT HEAD =           0.0000
               WELLS =           0.0000                 WELLS =           0.0000
     HEAD DEP BOUNDS =       49714.3672       HEAD DEP BOUNDS =         556.1326

           TOTAL OUT =       49714.3672             TOTAL OUT =         556.1326

            IN - OUT =          -7.9922              IN - OUT =          -0.9439

 PERCENT DISCREPANCY =          -0.02     PERCENT DISCREPANCY =          -0.17






         TIME SUMMARY AT END OF TIME STEP   58 IN STRESS PERIOD    2
                    SECONDS     MINUTES      HOURS       DAYS        YEARS
                    -----------------------------------------------------------
   TIME STEP LENGTH  86400.      1440.0      24.000      1.0000     2.73785E-03
 STRESS PERIOD TIME 5.01120E+06  83520.      1392.0      58.000     0.15880    
         TOTAL TIME 5.09760E+06  84960.      1416.0      59.000     0.16153    
1

 SOLVING FOR HEAD 
     1 ITERATIONS FOR TIME STEP  59 IN STRESS PERIOD    2

 OUTPUT CONTROL FOR STRESS PERIOD    2   TIME STEP   59
    SAVE HEAD FOR ALL LAYERS
    SAVE DRAWDOWN FOR ALL LAYERS
    SAVE BUDGET
    PRINT HEAD FOR ALL LAYERS
    PRINT BUDGET
 UBDSV1 SAVING "         STORAGE" ON UNIT  53 AT TIME STEP 59, STRESS PERIOD   2
 UBDSV2 SAVING "   CONSTANT HEAD" ON UNIT  53 AT TIME STEP 59, STRESS PERIOD   2
 UBDSV1 SAVING "FLOW RIGHT FACE " ON UNIT  53 AT TIME STEP 59, STRESS PERIOD   2
 UBDSV1 SAVING "FLOW FRONT FACE " ON UNIT  53 AT TIME STEP 59, STRESS PERIOD   2
1
              HEAD IN LAYER   1 AT END OF TIME STEP  59 IN STRESS PERIOD    2
  ---------------------------------------------------------------------------

            1           2           3           4           5           6           7           8           9          10
 ........................................................................................................................
   1    9.991       8.885       7.779       6.672       5.564       4.455       3.345       2.235       1.123      1.1120E-02
   2    9.991       8.885       7.779       6.672       5.564       4.455       3.345       2.235       1.123      1.1120E-02
   3    9.991       8.885       7.779       6.672       5.564       4.455       3.346       2.235       1.123      1.1120E-02
   4    9.991       8.885       7.779       6.672       5.564       4.455       3.346       2.235       1.123      1.1120E-02
   5    9.991       8.885       7.779       6.672       5.564       4.455       3.346       2.235       1.123      1.1120E-02
   6    9.991       8.885       7.779       6.672       5.564       4.455       3.346       2.235       1.123      1.1120E-02
   7    9.991       8.885       7.779       6.672       5.564       4.455       3.346       2.235       1.123      1.1120E-02
   8    9.991       8.885       7.779       6.672       5.564       4.455       3.345       2.235       1.123      1.1120E-02
   9    9.991       8.885       7.779       6.672       5.564       4.455       3.345       2.235       1.123      1.1120E-02
  10    9.991       8.885       7.779       6.672       5.564       4.455       3.345       2.234       1.123      1.1119E-02

 HEAD WILL BE SAVED ON UNIT   51 AT END OF TIME STEP   59, STRESS PERIOD    2

 DRAWDOWN WILL BE SAVED ON UNIT   52 AT END OF TIME STEP   59, STRESS PERIOD    2
1
  VOLUMETRIC BUDGET FOR ENTIRE MODEL AT END OF TIME STEP   59, STRESS PERIOD   2
  ------------------------------------------------------------------------------

     CUMULATIVE VOLUMES      L**3       RATES FOR THIS TIME STEP      L**3/T
     ------------------                 ------------------------

           IN:                                      IN:
           ---                                      ---
             STORAGE =       24969.7168               STORAGE =           2.2357
       CONSTANT HEAD =           0.0000         CONSTANT HEAD =           0.0000
               WELLS =           0.0000                 WELLS =           0.0000
     HEAD DEP BOUNDS =       25291.7832       HEAD DEP BOUNDS =         552.8898

            TOTAL IN =       50261.5000              TOTAL IN =         555.1255

          OUT:                                     OUT:
          ----                                     ----
             STORAGE =           0.0000               STORAGE =           0.0000
       CONSTANT HEAD =           0.0000         CONSTANT HEAD =           0.0000
               WELLS =           0.0000                 WELLS =           0.0000
     HEAD DEP BOUNDS =       50270.3633       HEAD DEP BOUNDS =         555.9957

           TOTAL OUT =       50270.3633             TOTAL OUT =         555.9957

            IN - OUT =          -8.8633              IN - OUT =          -0.8702

 PERCENT DISCREPANCY =          -0.02     PERCENT DISCREPANCY =          -0.16






         TIME SUMMARY AT END OF TIME STEP   59 IN STRESS PERIOD    2
                    SECONDS     MINUTES      HOURS       DAYS        YEARS
                    -----------------------------------------------------------
   TIME STEP LENGTH  86400.      1440.0      24.000      1.0000     2.73785E-03
 STRESS PERIOD TIME 5.09760E+06  84960.      1416.0      59.000     0.16153    
         TOTAL TIME 5.18400E+06  86400.      1440.0      60.000     0.16427    
1

 SOLVING FOR HEAD 
     1 ITERATIONS FOR TIME STEP  60 IN STRESS PERIOD    2

 OUTPUT CONTROL FOR STRESS PERIOD    2   TIME STEP   60
    SAVE HEAD FOR ALL LAYERS
    SAVE DRAWDOWN FOR ALL LAYERS
    SAVE BUDGET
    PRINT HEAD FOR ALL LAYERS
    PRINT BUDGET
 UBDSV1 SAVING "         STORAGE" ON UNIT  53 AT TIME STEP 60, STRESS PERIOD   2
 UBDSV2 SAVING "   CONSTANT HEAD" ON UNIT  53 AT TIME STEP 60, STRESS PERIOD   2
 UBDSV1 SAVING "FLOW RIGHT FACE " ON UNIT  53 AT TIME STEP 60, STRESS PERIOD   2
 UBDSV1 SAVING "FLOW FRONT FACE " ON UNIT  53 AT TIME STEP 60, STRESS PERIOD   2
1
              HEAD IN LAYER   1 AT END OF TIME STEP  60 IN STRESS PERIOD    2
  ---------------------------------------------------------------------------

            1           2           3           4           5           6           7           8           9          10
 ........................................................................................................................
   1    9.991       8.885       7.778       6.671       5.563       4.455       3.345       2.234       1.123      1.1118E-02
   2    9.991       8.885       7.778       6.671       5.564       4.455       3.345       2.234       1.123      1.1118E-02
   3    9.991       8.885       7.778       6.671       5.564       4.455       3.345       2.234       1.123      1.1118E-02
   4    9.991       8.885       7.778       6.671       5.564       4.455       3.345       2.234       1.123      1.1118E-02
   5    9.991       8.885       7.778       6.671       5.564       4.455       3.345       2.234       1.123      1.1118E-02
   6    9.991       8.885       7.778       6.671       5.564       4.455       3.345       2.234       1.123      1.1118E-02
   7    9.991       8.885       7.778       6.671       5.564       4.455       3.345       2.234       1.123      1.1118E-02
   8    9.991       8.885       7.778       6.671       5.564       4.455       3.345       2.234       1.123      1.1117E-02
   9    9.991       8.885       7.778       6.671       5.563       4.455       3.345       2.234       1.123      1.1117E-02
  10    9.991       8.885       7.778       6.671       5.563       4.455       3.345       2.234       1.123      1.1116E-02

 HEAD WILL BE SAVED ON UNIT   51 AT END OF TIME STEP   60, STRESS PERIOD    2

 DRAWDOWN WILL BE SAVED ON UNIT   52 AT END OF TIME STEP   60, STRESS PERIOD    2
1
  VOLUMETRIC BUDGET FOR ENTIRE MODEL AT END OF TIME STEP   60, STRESS PERIOD   2
  ------------------------------------------------------------------------------

     CUMULATIVE VOLUMES      L**3       RATES FOR THIS TIME STEP      L**3/T
     ------------------                 ------------------------

           IN:                                      IN:
           ---                                      ---
             STORAGE =       24971.7734               STORAGE =           2.0561
       CONSTANT HEAD =           0.0000         CONSTANT HEAD =           0.0000
               WELLS =           0.0000                 WELLS =           0.0000
     HEAD DEP BOUNDS =       25844.7949       HEAD DEP BOUNDS =         553.0122

            TOTAL IN =       50816.5703              TOTAL IN =         555.0684

          OUT:                                     OUT:
          ----                                     ----
             STORAGE =           0.0000               STORAGE =           0.0000
       CONSTANT HEAD =           0.0000         CONSTANT HEAD =           0.0000
               WELLS =           0.0000                 WELLS =           0.0000
     HEAD DEP BOUNDS =       50826.2344       HEAD DEP BOUNDS =         555.8698

           TOTAL OUT =       50826.2344             TOTAL OUT =         555.8698

            IN - OUT =          -9.6641              IN - OUT =          -0.8015

 PERCENT DISCREPANCY =          -0.02     PERCENT DISCREPANCY =          -0.14






         TIME SUMMARY AT END OF TIME STEP   60 IN STRESS PERIOD    2
                    SECONDS     MINUTES      HOURS       DAYS        YEARS
                    -----------------------------------------------------------
   TIME STEP LENGTH  86400.      1440.0      24.000      1.0000     2.73785E-03
 STRESS PERIOD TIME 5.18400E+06  86400.      1440.0      60.000     0.16427    
         TOTAL TIME 5.27040E+06  87840.      1464.0      61.000     0.16701    
1

 SOLVING FOR HEAD 
     1 ITERATIONS FOR TIME STEP  61 IN STRESS PERIOD    2

 OUTPUT CONTROL FOR STRESS PERIOD    2   TIME STEP   61
    SAVE HEAD FOR ALL LAYERS
    SAVE DRAWDOWN FOR ALL LAYERS
    SAVE BUDGET
    PRINT HEAD FOR ALL LAYERS
    PRINT BUDGET
 UBDSV1 SAVING "         STORAGE" ON UNIT  53 AT TIME STEP 61, STRESS PERIOD   2
 UBDSV2 SAVING "   CONSTANT HEAD" ON UNIT  53 AT TIME STEP 61, STRESS PERIOD   2
 UBDSV1 SAVING "FLOW RIGHT FACE " ON UNIT  53 AT TIME STEP 61, STRESS PERIOD   2
 UBDSV1 SAVING "FLOW FRONT FACE " ON UNIT  53 AT TIME STEP 61, STRESS PERIOD   2
1
              HEAD IN LAYER   1 AT END OF TIME STEP  61 IN STRESS PERIOD    2
  ---------------------------------------------------------------------------

            1           2           3           4           5           6           7           8           9          10
 ........................................................................................................................
   1    9.991       8.884       7.778       6.671       5.563       4.454       3.344       2.234       1.123      1.1115E-02
   2    9.991       8.885       7.778       6.671       5.563       4.454       3.344       2.234       1.123      1.1115E-02
   3    9.991       8.885       7.778       6.671       5.563       4.454       3.344       2.234       1.123      1.1115E-02
   4    9.991       8.885       7.778       6.671       5.563       4.454       3.344       2.234       1.123      1.1115E-02
   5    9.991       8.885       7.778       6.671       5.563       4.454       3.344       2.234       1.123      1.1115E-02
   6    9.991       8.885       7.778       6.671       5.563       4.454       3.344       2.234       1.123      1.1115E-02
   7    9.991       8.885       7.778       6.671       5.563       4.454       3.344       2.234       1.123      1.1115E-02
   8    9.991       8.885       7.778       6.671       5.563       4.454       3.344       2.234       1.123      1.1115E-02
   9    9.991       8.885       7.778       6.671       5.563       4.454       3.344       2.234       1.123      1.1115E-02
  10    9.991       8.885       7.778       6.671       5.563       4.454       3.344       2.234       1.122      1.1114E-02

 HEAD WILL BE SAVED ON UNIT   51 AT END OF TIME STEP   61, STRESS PERIOD    2

 DRAWDOWN WILL BE SAVED ON UNIT   52 AT END OF TIME STEP   61, STRESS PERIOD    2
1
  VOLUMETRIC BUDGET FOR ENTIRE MODEL AT END OF TIME STEP   61, STRESS PERIOD   2
  ------------------------------------------------------------------------------

     CUMULATIVE VOLUMES      L**3       RATES FOR THIS TIME STEP      L**3/T
     ------------------                 ------------------------

           IN:                                      IN:
           ---                                      ---
             STORAGE =       24973.6641               STORAGE =           1.8910
       CONSTANT HEAD =           0.0000         CONSTANT HEAD =           0.0000
               WELLS =           0.0000                 WELLS =           0.0000
     HEAD DEP BOUNDS =       26397.9199       HEAD DEP BOUNDS =         553.1247

            TOTAL IN =       51371.5859              TOTAL IN =         555.0157

          OUT:                                     OUT:
          ----                                     ----
             STORAGE =           0.0000               STORAGE =           0.0000
       CONSTANT HEAD =           0.0000         CONSTANT HEAD =           0.0000
               WELLS =           0.0000                 WELLS =           0.0000
     HEAD DEP BOUNDS =       51381.9883       HEAD DEP BOUNDS =         555.7541

           TOTAL OUT =       51381.9883             TOTAL OUT =         555.7541

            IN - OUT =         -10.4023              IN - OUT =          -0.7383

 PERCENT DISCREPANCY =          -0.02     PERCENT DISCREPANCY =          -0.13






         TIME SUMMARY AT END OF TIME STEP   61 IN STRESS PERIOD    2
                    SECONDS     MINUTES      HOURS       DAYS        YEARS
                    -----------------------------------------------------------
   TIME STEP LENGTH  86400.      1440.0      24.000      1.0000     2.73785E-03
 STRESS PERIOD TIME 5.27040E+06  87840.      1464.0      61.000     0.16701    
         TOTAL TIME 5.35680E+06  89280.      1488.0      62.000     0.16975    
1

 SOLVING FOR HEAD 
     1 ITERATIONS FOR TIME STEP  62 IN STRESS PERIOD    2

 OUTPUT CONTROL FOR STRESS PERIOD    2   TIME STEP   62
    SAVE HEAD FOR ALL LAYERS
    SAVE DRAWDOWN FOR ALL LAYERS
    SAVE BUDGET
    PRINT HEAD FOR ALL LAYERS
    PRINT BUDGET
 UBDSV1 SAVING "         STORAGE" ON UNIT  53 AT TIME STEP 62, STRESS PERIOD   2
 UBDSV2 SAVING "   CONSTANT HEAD" ON UNIT  53 AT TIME STEP 62, STRESS PERIOD   2
 UBDSV1 SAVING "FLOW RIGHT FACE " ON UNIT  53 AT TIME STEP 62, STRESS PERIOD   2
 UBDSV1 SAVING "FLOW FRONT FACE " ON UNIT  53 AT TIME STEP 62, STRESS PERIOD   2
1
              HEAD IN LAYER   1 AT END OF TIME STEP  62 IN STRESS PERIOD    2
  ---------------------------------------------------------------------------

            1           2           3           4           5           6           7           8           9          10
 ........................................................................................................................
   1    9.991       8.884       7.777       6.670       5.562       4.453       3.344       2.233       1.122      1.1113E-02
   2    9.991       8.884       7.778       6.670       5.562       4.453       3.344       2.233       1.122      1.1113E-02
   3    9.991       8.884       7.778       6.670       5.562       4.453       3.344       2.233       1.122      1.1113E-02
   4    9.991       8.884       7.778       6.670       5.562       4.453       3.344       2.233       1.122      1.1113E-02
   5    9.991       8.884       7.778       6.670       5.562       4.453       3.344       2.233       1.122      1.1113E-02
   6    9.991       8.884       7.778       6.670       5.562       4.453       3.344       2.233       1.122      1.1113E-02
   7    9.991       8.884       7.778       6.670       5.562       4.453       3.344       2.233       1.122      1.1113E-02
   8    9.991       8.884       7.778       6.670       5.562       4.453       3.344       2.233       1.122      1.1113E-02
   9    9.991       8.884       7.778       6.670       5.562       4.453       3.344       2.233       1.122      1.1113E-02
  10    9.991       8.884       7.778       6.670       5.562       4.453       3.344       2.233       1.122      1.1112E-02

 HEAD WILL BE SAVED ON UNIT   51 AT END OF TIME STEP   62, STRESS PERIOD    2

 DRAWDOWN WILL BE SAVED ON UNIT   52 AT END OF TIME STEP   62, STRESS PERIOD    2
1
  VOLUMETRIC BUDGET FOR ENTIRE MODEL AT END OF TIME STEP   62, STRESS PERIOD   2
  ------------------------------------------------------------------------------

     CUMULATIVE VOLUMES      L**3       RATES FOR THIS TIME STEP      L**3/T
     ------------------                 ------------------------

           IN:                                      IN:
           ---                                      ---
             STORAGE =       24975.4023               STORAGE =           1.7391
       CONSTANT HEAD =           0.0000         CONSTANT HEAD =           0.0000
               WELLS =           0.0000                 WELLS =           0.0000
     HEAD DEP BOUNDS =       26951.1484       HEAD DEP BOUNDS =         553.2282

            TOTAL IN =       51926.5508              TOTAL IN =         554.9673

          OUT:                                     OUT:
          ----                                     ----
             STORAGE =           0.0000               STORAGE =           0.0000
       CONSTANT HEAD =           0.0000         CONSTANT HEAD =           0.0000
               WELLS =           0.0000                 WELLS =           0.0000
     HEAD DEP BOUNDS =       51937.6367       HEAD DEP BOUNDS =         555.6477

           TOTAL OUT =       51937.6367             TOTAL OUT =         555.6477

            IN - OUT =         -11.0859              IN - OUT =          -0.6804

 PERCENT DISCREPANCY =          -0.02     PERCENT DISCREPANCY =          -0.12






         TIME SUMMARY AT END OF TIME STEP   62 IN STRESS PERIOD    2
                    SECONDS     MINUTES      HOURS       DAYS        YEARS
                    -----------------------------------------------------------
   TIME STEP LENGTH  86400.      1440.0      24.000      1.0000     2.73785E-03
 STRESS PERIOD TIME 5.35680E+06  89280.      1488.0      62.000     0.16975    
         TOTAL TIME 5.44320E+06  90720.      1512.0      63.000     0.17248    
1

 SOLVING FOR HEAD 
     1 ITERATIONS FOR TIME STEP  63 IN STRESS PERIOD    2

 OUTPUT CONTROL FOR STRESS PERIOD    2   TIME STEP   63
    SAVE HEAD FOR ALL LAYERS
    SAVE DRAWDOWN FOR ALL LAYERS
    SAVE BUDGET
    PRINT HEAD FOR ALL LAYERS
    PRINT BUDGET
 UBDSV1 SAVING "         STORAGE" ON UNIT  53 AT TIME STEP 63, STRESS PERIOD   2
 UBDSV2 SAVING "   CONSTANT HEAD" ON UNIT  53 AT TIME STEP 63, STRESS PERIOD   2
 UBDSV1 SAVING "FLOW RIGHT FACE " ON UNIT  53 AT TIME STEP 63, STRESS PERIOD   2
 UBDSV1 SAVING "FLOW FRONT FACE " ON UNIT  53 AT TIME STEP 63, STRESS PERIOD   2
1
              HEAD IN LAYER   1 AT END OF TIME STEP  63 IN STRESS PERIOD    2
  ---------------------------------------------------------------------------

            1           2           3           4           5           6           7           8           9          10
 ........................................................................................................................
   1    9.991       8.884       7.777       6.670       5.562       4.453       3.343       2.233       1.122      1.1111E-02
   2    9.991       8.884       7.777       6.670       5.562       4.453       3.343       2.233       1.122      1.1111E-02
   3    9.991       8.884       7.777       6.670       5.562       4.453       3.343       2.233       1.122      1.1111E-02
   4    9.991       8.884       7.777       6.670       5.562       4.453       3.343       2.233       1.122      1.1111E-02
   5    9.991       8.884       7.777       6.670       5.562       4.453       3.343       2.233       1.122      1.1111E-02
   6    9.991       8.884       7.777       6.670       5.562       4.453       3.343       2.233       1.122      1.1111E-02
   7    9.991       8.884       7.777       6.670       5.562       4.453       3.343       2.233       1.122      1.1111E-02
   8    9.991       8.884       7.777       6.670       5.562       4.453       3.343       2.233       1.122      1.1111E-02
   9    9.991       8.884       7.777       6.670       5.562       4.453       3.343       2.233       1.122      1.1111E-02
  10    9.991       8.884       7.777       6.670       5.562       4.453       3.343       2.233       1.122      1.1110E-02

 HEAD WILL BE SAVED ON UNIT   51 AT END OF TIME STEP   63, STRESS PERIOD    2

 DRAWDOWN WILL BE SAVED ON UNIT   52 AT END OF TIME STEP   63, STRESS PERIOD    2
1
  VOLUMETRIC BUDGET FOR ENTIRE MODEL AT END OF TIME STEP   63, STRESS PERIOD   2
  ------------------------------------------------------------------------------

     CUMULATIVE VOLUMES      L**3       RATES FOR THIS TIME STEP      L**3/T
     ------------------                 ------------------------

           IN:                                      IN:
           ---                                      ---
             STORAGE =       24977.0020               STORAGE =           1.5998
       CONSTANT HEAD =           0.0000         CONSTANT HEAD =           0.0000
               WELLS =           0.0000                 WELLS =           0.0000
     HEAD DEP BOUNDS =       27504.4727       HEAD DEP BOUNDS =         553.3233

            TOTAL IN =       52481.4766              TOTAL IN =         554.9230

          OUT:                                     OUT:
          ----                                     ----
             STORAGE =           0.0000               STORAGE =           0.0000
       CONSTANT HEAD =           0.0000         CONSTANT HEAD =           0.0000
               WELLS =           0.0000                 WELLS =           0.0000
     HEAD DEP BOUNDS =       52493.1875       HEAD DEP BOUNDS =         555.5499

           TOTAL OUT =       52493.1875             TOTAL OUT =         555.5499

            IN - OUT =         -11.7109              IN - OUT =          -0.6268

 PERCENT DISCREPANCY =          -0.02     PERCENT DISCREPANCY =          -0.11






         TIME SUMMARY AT END OF TIME STEP   63 IN STRESS PERIOD    2
                    SECONDS     MINUTES      HOURS       DAYS        YEARS
                    -----------------------------------------------------------
   TIME STEP LENGTH  86400.      1440.0      24.000      1.0000     2.73785E-03
 STRESS PERIOD TIME 5.44320E+06  90720.      1512.0      63.000     0.17248    
         TOTAL TIME 5.52960E+06  92160.      1536.0      64.000     0.17522    
1

 SOLVING FOR HEAD 
     1 ITERATIONS FOR TIME STEP  64 IN STRESS PERIOD    2

 OUTPUT CONTROL FOR STRESS PERIOD    2   TIME STEP   64
    SAVE HEAD FOR ALL LAYERS
    SAVE DRAWDOWN FOR ALL LAYERS
    SAVE BUDGET
    PRINT HEAD FOR ALL LAYERS
    PRINT BUDGET
 UBDSV1 SAVING "         STORAGE" ON UNIT  53 AT TIME STEP 64, STRESS PERIOD   2
 UBDSV2 SAVING "   CONSTANT HEAD" ON UNIT  53 AT TIME STEP 64, STRESS PERIOD   2
 UBDSV1 SAVING "FLOW RIGHT FACE " ON UNIT  53 AT TIME STEP 64, STRESS PERIOD   2
 UBDSV1 SAVING "FLOW FRONT FACE " ON UNIT  53 AT TIME STEP 64, STRESS PERIOD   2
1
              HEAD IN LAYER   1 AT END OF TIME STEP  64 IN STRESS PERIOD    2
  ---------------------------------------------------------------------------

            1           2           3           4           5           6           7           8           9          10
 ........................................................................................................................
   1    9.991       8.884       7.777       6.669       5.561       4.452       3.343       2.233       1.122      1.1109E-02
   2    9.991       8.884       7.777       6.669       5.561       4.452       3.343       2.233       1.122      1.1109E-02
   3    9.991       8.884       7.777       6.669       5.561       4.452       3.343       2.233       1.122      1.1109E-02
   4    9.991       8.884       7.777       6.669       5.561       4.452       3.343       2.233       1.122      1.1109E-02
   5    9.991       8.884       7.777       6.669       5.561       4.452       3.343       2.233       1.122      1.1109E-02
   6    9.991       8.884       7.777       6.669       5.561       4.452       3.343       2.233       1.122      1.1109E-02
   7    9.991       8.884       7.777       6.669       5.561       4.452       3.343       2.233       1.122      1.1109E-02
   8    9.991       8.884       7.777       6.669       5.561       4.452       3.343       2.233       1.122      1.1109E-02
   9    9.991       8.884       7.777       6.669       5.561       4.452       3.343       2.233       1.122      1.1109E-02
  10    9.991       8.884       7.777       6.669       5.561       4.452       3.343       2.233       1.122      1.1108E-02

 HEAD WILL BE SAVED ON UNIT   51 AT END OF TIME STEP   64, STRESS PERIOD    2

 DRAWDOWN WILL BE SAVED ON UNIT   52 AT END OF TIME STEP   64, STRESS PERIOD    2
1
  VOLUMETRIC BUDGET FOR ENTIRE MODEL AT END OF TIME STEP   64, STRESS PERIOD   2
  ------------------------------------------------------------------------------

     CUMULATIVE VOLUMES      L**3       RATES FOR THIS TIME STEP      L**3/T
     ------------------                 ------------------------

           IN:                                      IN:
           ---                                      ---
             STORAGE =       24978.4727               STORAGE =           1.4716
       CONSTANT HEAD =           0.0000         CONSTANT HEAD =           0.0000
               WELLS =           0.0000                 WELLS =           0.0000
     HEAD DEP BOUNDS =       28057.8828       HEAD DEP BOUNDS =         553.4108

            TOTAL IN =       53036.3555              TOTAL IN =         554.8823

          OUT:                                     OUT:
          ----                                     ----
             STORAGE =           0.0000               STORAGE =           0.0000
       CONSTANT HEAD =           0.0000         CONSTANT HEAD =           0.0000
               WELLS =           0.0000                 WELLS =           0.0000
     HEAD DEP BOUNDS =       53048.6484       HEAD DEP BOUNDS =         555.4598

           TOTAL OUT =       53048.6484             TOTAL OUT =         555.4598

            IN - OUT =         -12.2930              IN - OUT =          -0.5775

 PERCENT DISCREPANCY =          -0.02     PERCENT DISCREPANCY =          -0.10






         TIME SUMMARY AT END OF TIME STEP   64 IN STRESS PERIOD    2
                    SECONDS     MINUTES      HOURS       DAYS        YEARS
                    -----------------------------------------------------------
   TIME STEP LENGTH  86400.      1440.0      24.000      1.0000     2.73785E-03
 STRESS PERIOD TIME 5.52960E+06  92160.      1536.0      64.000     0.17522    
         TOTAL TIME 5.61600E+06  93600.      1560.0      65.000     0.17796    
1

 SOLVING FOR HEAD 
     1 ITERATIONS FOR TIME STEP  65 IN STRESS PERIOD    2

 OUTPUT CONTROL FOR STRESS PERIOD    2   TIME STEP   65
    SAVE HEAD FOR ALL LAYERS
    SAVE DRAWDOWN FOR ALL LAYERS
    SAVE BUDGET
    PRINT HEAD FOR ALL LAYERS
    PRINT BUDGET
 UBDSV1 SAVING "         STORAGE" ON UNIT  53 AT TIME STEP 65, STRESS PERIOD   2
 UBDSV2 SAVING "   CONSTANT HEAD" ON UNIT  53 AT TIME STEP 65, STRESS PERIOD   2
 UBDSV1 SAVING "FLOW RIGHT FACE " ON UNIT  53 AT TIME STEP 65, STRESS PERIOD   2
 UBDSV1 SAVING "FLOW FRONT FACE " ON UNIT  53 AT TIME STEP 65, STRESS PERIOD   2
1
              HEAD IN LAYER   1 AT END OF TIME STEP  65 IN STRESS PERIOD    2
  ---------------------------------------------------------------------------

            1           2           3           4           5           6           7           8           9          10
 ........................................................................................................................
   1    9.991       8.884       7.777       6.669       5.561       4.452       3.342       2.232       1.122      1.1108E-02
   2    9.991       8.884       7.777       6.669       5.561       4.452       3.342       2.232       1.122      1.1108E-02
   3    9.991       8.884       7.777       6.669       5.561       4.452       3.342       2.232       1.122      1.1108E-02
   4    9.991       8.884       7.777       6.669       5.561       4.452       3.342       2.232       1.122      1.1108E-02
   5    9.991       8.884       7.777       6.669       5.561       4.452       3.342       2.232       1.122      1.1108E-02
   6    9.991       8.884       7.777       6.669       5.561       4.452       3.342       2.232       1.122      1.1108E-02
   7    9.991       8.884       7.777       6.669       5.561       4.452       3.342       2.232       1.122      1.1108E-02
   8    9.991       8.884       7.777       6.669       5.561       4.452       3.342       2.232       1.122      1.1107E-02
   9    9.991       8.884       7.777       6.669       5.561       4.452       3.342       2.232       1.122      1.1107E-02
  10    9.991       8.884       7.777       6.669       5.561       4.452       3.342       2.232       1.122      1.1106E-02

 HEAD WILL BE SAVED ON UNIT   51 AT END OF TIME STEP   65, STRESS PERIOD    2

 DRAWDOWN WILL BE SAVED ON UNIT   52 AT END OF TIME STEP   65, STRESS PERIOD    2
1
  VOLUMETRIC BUDGET FOR ENTIRE MODEL AT END OF TIME STEP   65, STRESS PERIOD   2
  ------------------------------------------------------------------------------

     CUMULATIVE VOLUMES      L**3       RATES FOR THIS TIME STEP      L**3/T
     ------------------                 ------------------------

           IN:                                      IN:
           ---                                      ---
             STORAGE =       24979.8262               STORAGE =           1.3538
       CONSTANT HEAD =           0.0000         CONSTANT HEAD =           0.0000
               WELLS =           0.0000                 WELLS =           0.0000
     HEAD DEP BOUNDS =       28611.3750       HEAD DEP BOUNDS =         553.4912

            TOTAL IN =       53591.2031              TOTAL IN =         554.8450

          OUT:                                     OUT:
          ----                                     ----
             STORAGE =           0.0000               STORAGE =           0.0000
       CONSTANT HEAD =           0.0000         CONSTANT HEAD =           0.0000
               WELLS =           0.0000                 WELLS =           0.0000
     HEAD DEP BOUNDS =       53604.0273       HEAD DEP BOUNDS =         555.3771

           TOTAL OUT =       53604.0273             TOTAL OUT =         555.3771

            IN - OUT =         -12.8242              IN - OUT =          -0.5321

 PERCENT DISCREPANCY =          -0.02     PERCENT DISCREPANCY =          -0.10






         TIME SUMMARY AT END OF TIME STEP   65 IN STRESS PERIOD    2
                    SECONDS     MINUTES      HOURS       DAYS        YEARS
                    -----------------------------------------------------------
   TIME STEP LENGTH  86400.      1440.0      24.000      1.0000     2.73785E-03
 STRESS PERIOD TIME 5.61600E+06  93600.      1560.0      65.000     0.17796    
         TOTAL TIME 5.70240E+06  95040.      1584.0      66.000     0.18070    
1

 SOLVING FOR HEAD 
     1 ITERATIONS FOR TIME STEP  66 IN STRESS PERIOD    2

 OUTPUT CONTROL FOR STRESS PERIOD    2   TIME STEP   66
    SAVE HEAD FOR ALL LAYERS
    SAVE DRAWDOWN FOR ALL LAYERS
    SAVE BUDGET
    PRINT HEAD FOR ALL LAYERS
    PRINT BUDGET
 UBDSV1 SAVING "         STORAGE" ON UNIT  53 AT TIME STEP 66, STRESS PERIOD   2
 UBDSV2 SAVING "   CONSTANT HEAD" ON UNIT  53 AT TIME STEP 66, STRESS PERIOD   2
 UBDSV1 SAVING "FLOW RIGHT FACE " ON UNIT  53 AT TIME STEP 66, STRESS PERIOD   2
 UBDSV1 SAVING "FLOW FRONT FACE " ON UNIT  53 AT TIME STEP 66, STRESS PERIOD   2
1
              HEAD IN LAYER   1 AT END OF TIME STEP  66 IN STRESS PERIOD    2
  ---------------------------------------------------------------------------

            1           2           3           4           5           6           7           8           9          10
 ........................................................................................................................
   1    9.991       8.884       7.776       6.668       5.560       4.451       3.342       2.232       1.122      1.1106E-02
   2    9.991       8.884       7.776       6.669       5.560       4.451       3.342       2.232       1.122      1.1106E-02
   3    9.991       8.884       7.776       6.669       5.560       4.451       3.342       2.232       1.122      1.1106E-02
   4    9.991       8.884       7.776       6.669       5.560       4.452       3.342       2.232       1.122      1.1106E-02
   5    9.991       8.884       7.776       6.669       5.560       4.452       3.342       2.232       1.122      1.1106E-02
   6    9.991       8.884       7.776       6.669       5.560       4.452       3.342       2.232       1.122      1.1106E-02
   7    9.991       8.884       7.776       6.669       5.560       4.451       3.342       2.232       1.122      1.1106E-02
   8    9.991       8.884       7.776       6.669       5.560       4.451       3.342       2.232       1.122      1.1106E-02
   9    9.991       8.884       7.776       6.669       5.560       4.451       3.342       2.232       1.122      1.1106E-02
  10    9.991       8.884       7.776       6.668       5.560       4.451       3.342       2.232       1.122      1.1105E-02

 HEAD WILL BE SAVED ON UNIT   51 AT END OF TIME STEP   66, STRESS PERIOD    2

 DRAWDOWN WILL BE SAVED ON UNIT   52 AT END OF TIME STEP   66, STRESS PERIOD    2
1
  VOLUMETRIC BUDGET FOR ENTIRE MODEL AT END OF TIME STEP   66, STRESS PERIOD   2
  ------------------------------------------------------------------------------

     CUMULATIVE VOLUMES      L**3       RATES FOR THIS TIME STEP      L**3/T
     ------------------                 ------------------------

           IN:                                      IN:
           ---                                      ---
             STORAGE =       24981.0723               STORAGE =           1.2453
       CONSTANT HEAD =           0.0000         CONSTANT HEAD =           0.0000
               WELLS =           0.0000                 WELLS =           0.0000
     HEAD DEP BOUNDS =       29164.9395       HEAD DEP BOUNDS =         553.5653

            TOTAL IN =       54146.0117              TOTAL IN =         554.8106

          OUT:                                     OUT:
          ----                                     ----
             STORAGE =           0.0000               STORAGE =           0.0000
       CONSTANT HEAD =           0.0000         CONSTANT HEAD =           0.0000
               WELLS =           0.0000                 WELLS =           0.0000
     HEAD DEP BOUNDS =       54159.3281       HEAD DEP BOUNDS =         555.3009

           TOTAL OUT =       54159.3281             TOTAL OUT =         555.3009

            IN - OUT =         -13.3164              IN - OUT =          -0.4903

 PERCENT DISCREPANCY =          -0.02     PERCENT DISCREPANCY =          -0.09






         TIME SUMMARY AT END OF TIME STEP   66 IN STRESS PERIOD    2
                    SECONDS     MINUTES      HOURS       DAYS        YEARS
                    -----------------------------------------------------------
   TIME STEP LENGTH  86400.      1440.0      24.000      1.0000     2.73785E-03
 STRESS PERIOD TIME 5.70240E+06  95040.      1584.0      66.000     0.18070    
         TOTAL TIME 5.78880E+06  96480.      1608.0      67.000     0.18344    
1

 SOLVING FOR HEAD 
     1 ITERATIONS FOR TIME STEP  67 IN STRESS PERIOD    2

 OUTPUT CONTROL FOR STRESS PERIOD    2   TIME STEP   67
    SAVE HEAD FOR ALL LAYERS
    SAVE DRAWDOWN FOR ALL LAYERS
    SAVE BUDGET
    PRINT HEAD FOR ALL LAYERS
    PRINT BUDGET
 UBDSV1 SAVING "         STORAGE" ON UNIT  53 AT TIME STEP 67, STRESS PERIOD   2
 UBDSV2 SAVING "   CONSTANT HEAD" ON UNIT  53 AT TIME STEP 67, STRESS PERIOD   2
 UBDSV1 SAVING "FLOW RIGHT FACE " ON UNIT  53 AT TIME STEP 67, STRESS PERIOD   2
 UBDSV1 SAVING "FLOW FRONT FACE " ON UNIT  53 AT TIME STEP 67, STRESS PERIOD   2
1
              HEAD IN LAYER   1 AT END OF TIME STEP  67 IN STRESS PERIOD    2
  ---------------------------------------------------------------------------

            1           2           3           4           5           6           7           8           9          10
 ........................................................................................................................
   1    9.991       8.883       7.776       6.668       5.560       4.451       3.342       2.232       1.122      1.1105E-02
   2    9.991       8.883       7.776       6.668       5.560       4.451       3.342       2.232       1.122      1.1105E-02
   3    9.991       8.884       7.776       6.668       5.560       4.451       3.342       2.232       1.122      1.1105E-02
   4    9.991       8.884       7.776       6.668       5.560       4.451       3.342       2.232       1.122      1.1105E-02
   5    9.991       8.884       7.776       6.668       5.560       4.451       3.342       2.232       1.122      1.1105E-02
   6    9.991       8.884       7.776       6.668       5.560       4.451       3.342       2.232       1.122      1.1105E-02
   7    9.991       8.884       7.776       6.668       5.560       4.451       3.342       2.232       1.122      1.1105E-02
   8    9.991       8.884       7.776       6.668       5.560       4.451       3.342       2.232       1.122      1.1105E-02
   9    9.991       8.883       7.776       6.668       5.560       4.451       3.342       2.232       1.122      1.1104E-02
  10    9.991       8.883       7.776       6.668       5.560       4.451       3.342       2.232       1.121      1.1104E-02

 HEAD WILL BE SAVED ON UNIT   51 AT END OF TIME STEP   67, STRESS PERIOD    2

 DRAWDOWN WILL BE SAVED ON UNIT   52 AT END OF TIME STEP   67, STRESS PERIOD    2
1
  VOLUMETRIC BUDGET FOR ENTIRE MODEL AT END OF TIME STEP   67, STRESS PERIOD   2
  ------------------------------------------------------------------------------

     CUMULATIVE VOLUMES      L**3       RATES FOR THIS TIME STEP      L**3/T
     ------------------                 ------------------------

           IN:                                      IN:
           ---                                      ---
             STORAGE =       24982.2168               STORAGE =           1.1454
       CONSTANT HEAD =           0.0000         CONSTANT HEAD =           0.0000
               WELLS =           0.0000                 WELLS =           0.0000
     HEAD DEP BOUNDS =       29718.5723       HEAD DEP BOUNDS =         553.6334

            TOTAL IN =       54700.7891              TOTAL IN =         554.7787

          OUT:                                     OUT:
          ----                                     ----
             STORAGE =           0.0000               STORAGE =           0.0000
       CONSTANT HEAD =           0.0000         CONSTANT HEAD =           0.0000
               WELLS =           0.0000                 WELLS =           0.0000
     HEAD DEP BOUNDS =       54714.5586       HEAD DEP BOUNDS =         555.2308

           TOTAL OUT =       54714.5586             TOTAL OUT =         555.2308

            IN - OUT =         -13.7695              IN - OUT =          -0.4521

 PERCENT DISCREPANCY =          -0.03     PERCENT DISCREPANCY =          -0.08






         TIME SUMMARY AT END OF TIME STEP   67 IN STRESS PERIOD    2
                    SECONDS     MINUTES      HOURS       DAYS        YEARS
                    -----------------------------------------------------------
   TIME STEP LENGTH  86400.      1440.0      24.000      1.0000     2.73785E-03
 STRESS PERIOD TIME 5.78880E+06  96480.      1608.0      67.000     0.18344    
         TOTAL TIME 5.87520E+06  97920.      1632.0      68.000     0.18617    
1

 SOLVING FOR HEAD 
     1 ITERATIONS FOR TIME STEP  68 IN STRESS PERIOD    2

 OUTPUT CONTROL FOR STRESS PERIOD    2   TIME STEP   68
    SAVE HEAD FOR ALL LAYERS
    SAVE DRAWDOWN FOR ALL LAYERS
    SAVE BUDGET
    PRINT HEAD FOR ALL LAYERS
    PRINT BUDGET
 UBDSV1 SAVING "         STORAGE" ON UNIT  53 AT TIME STEP 68, STRESS PERIOD   2
 UBDSV2 SAVING "   CONSTANT HEAD" ON UNIT  53 AT TIME STEP 68, STRESS PERIOD   2
 UBDSV1 SAVING "FLOW RIGHT FACE " ON UNIT  53 AT TIME STEP 68, STRESS PERIOD   2
 UBDSV1 SAVING "FLOW FRONT FACE " ON UNIT  53 AT TIME STEP 68, STRESS PERIOD   2
1
              HEAD IN LAYER   1 AT END OF TIME STEP  68 IN STRESS PERIOD    2
  ---------------------------------------------------------------------------

            1           2           3           4           5           6           7           8           9          10
 ........................................................................................................................
   1    9.991       8.883       7.776       6.668       5.560       4.451       3.341       2.232       1.121      1.1104E-02
   2    9.991       8.883       7.776       6.668       5.560       4.451       3.341       2.232       1.121      1.1103E-02
   3    9.991       8.883       7.776       6.668       5.560       4.451       3.341       2.232       1.121      1.1104E-02
   4    9.991       8.883       7.776       6.668       5.560       4.451       3.341       2.232       1.121      1.1104E-02
   5    9.991       8.883       7.776       6.668       5.560       4.451       3.341       2.232       1.121      1.1104E-02
   6    9.991       8.883       7.776       6.668       5.560       4.451       3.341       2.232       1.121      1.1103E-02
   7    9.991       8.883       7.776       6.668       5.560       4.451       3.341       2.232       1.121      1.1103E-02
   8    9.991       8.883       7.776       6.668       5.560       4.451       3.341       2.232       1.121      1.1103E-02
   9    9.991       8.883       7.776       6.668       5.559       4.451       3.341       2.231       1.121      1.1103E-02
  10    9.991       8.883       7.776       6.668       5.559       4.451       3.341       2.231       1.121      1.1102E-02

 HEAD WILL BE SAVED ON UNIT   51 AT END OF TIME STEP   68, STRESS PERIOD    2

 DRAWDOWN WILL BE SAVED ON UNIT   52 AT END OF TIME STEP   68, STRESS PERIOD    2
1
  VOLUMETRIC BUDGET FOR ENTIRE MODEL AT END OF TIME STEP   68, STRESS PERIOD   2
  ------------------------------------------------------------------------------

     CUMULATIVE VOLUMES      L**3       RATES FOR THIS TIME STEP      L**3/T
     ------------------                 ------------------------

           IN:                                      IN:
           ---                                      ---
             STORAGE =       24983.2695               STORAGE =           1.0535
       CONSTANT HEAD =           0.0000         CONSTANT HEAD =           0.0000
               WELLS =           0.0000                 WELLS =           0.0000
     HEAD DEP BOUNDS =       30272.2676       HEAD DEP BOUNDS =         553.6960

            TOTAL IN =       55255.5391              TOTAL IN =         554.7495

          OUT:                                     OUT:
          ----                                     ----
             STORAGE =           0.0000               STORAGE =           0.0000
       CONSTANT HEAD =           0.0000         CONSTANT HEAD =           0.0000
               WELLS =           0.0000                 WELLS =           0.0000
     HEAD DEP BOUNDS =       55269.7266       HEAD DEP BOUNDS =         555.1664

           TOTAL OUT =       55269.7266             TOTAL OUT =         555.1664

            IN - OUT =         -14.1875              IN - OUT =          -0.4169

 PERCENT DISCREPANCY =          -0.03     PERCENT DISCREPANCY =          -0.08






         TIME SUMMARY AT END OF TIME STEP   68 IN STRESS PERIOD    2
                    SECONDS     MINUTES      HOURS       DAYS        YEARS
                    -----------------------------------------------------------
   TIME STEP LENGTH  86400.      1440.0      24.000      1.0000     2.73785E-03
 STRESS PERIOD TIME 5.87520E+06  97920.      1632.0      68.000     0.18617    
         TOTAL TIME 5.96160E+06  99360.      1656.0      69.000     0.18891    
1

 SOLVING FOR HEAD 
     1 ITERATIONS FOR TIME STEP  69 IN STRESS PERIOD    2

 OUTPUT CONTROL FOR STRESS PERIOD    2   TIME STEP   69
    SAVE HEAD FOR ALL LAYERS
    SAVE DRAWDOWN FOR ALL LAYERS
    SAVE BUDGET
    PRINT HEAD FOR ALL LAYERS
    PRINT BUDGET
 UBDSV1 SAVING "         STORAGE" ON UNIT  53 AT TIME STEP 69, STRESS PERIOD   2
 UBDSV2 SAVING "   CONSTANT HEAD" ON UNIT  53 AT TIME STEP 69, STRESS PERIOD   2
 UBDSV1 SAVING "FLOW RIGHT FACE " ON UNIT  53 AT TIME STEP 69, STRESS PERIOD   2
 UBDSV1 SAVING "FLOW FRONT FACE " ON UNIT  53 AT TIME STEP 69, STRESS PERIOD   2
1
              HEAD IN LAYER   1 AT END OF TIME STEP  69 IN STRESS PERIOD    2
  ---------------------------------------------------------------------------

            1           2           3           4           5           6           7           8           9          10
 ........................................................................................................................
   1    9.991       8.883       7.776       6.668       5.559       4.450       3.341       2.231       1.121      1.1102E-02
   2    9.991       8.883       7.776       6.668       5.559       4.450       3.341       2.231       1.121      1.1102E-02
   3    9.991       8.883       7.776       6.668       5.559       4.450       3.341       2.231       1.121      1.1102E-02
   4    9.991       8.883       7.776       6.668       5.559       4.450       3.341       2.231       1.121      1.1102E-02
   5    9.991       8.883       7.776       6.668       5.559       4.450       3.341       2.231       1.121      1.1102E-02
   6    9.991       8.883       7.776       6.668       5.559       4.450       3.341       2.231       1.121      1.1102E-02
   7    9.991       8.883       7.776       6.668       5.559       4.450       3.341       2.231       1.121      1.1102E-02
   8    9.991       8.883       7.776       6.668       5.559       4.450       3.341       2.231       1.121      1.1102E-02
   9    9.991       8.883       7.776       6.668       5.559       4.450       3.341       2.231       1.121      1.1102E-02
  10    9.991       8.883       7.776       6.668       5.559       4.450       3.341       2.231       1.121      1.1101E-02

 HEAD WILL BE SAVED ON UNIT   51 AT END OF TIME STEP   69, STRESS PERIOD    2

 DRAWDOWN WILL BE SAVED ON UNIT   52 AT END OF TIME STEP   69, STRESS PERIOD    2
1
  VOLUMETRIC BUDGET FOR ENTIRE MODEL AT END OF TIME STEP   69, STRESS PERIOD   2
  ------------------------------------------------------------------------------

     CUMULATIVE VOLUMES      L**3       RATES FOR THIS TIME STEP      L**3/T
     ------------------                 ------------------------

           IN:                                      IN:
           ---                                      ---
             STORAGE =       24984.2383               STORAGE =           0.9693
       CONSTANT HEAD =           0.0000         CONSTANT HEAD =           0.0000
               WELLS =           0.0000                 WELLS =           0.0000
     HEAD DEP BOUNDS =       30826.0215       HEAD DEP BOUNDS =         553.7536

            TOTAL IN =       55810.2578              TOTAL IN =         554.7229

          OUT:                                     OUT:
          ----                                     ----
             STORAGE =           0.0000               STORAGE =           0.0000
       CONSTANT HEAD =           0.0000         CONSTANT HEAD =           0.0000
               WELLS =           0.0000                 WELLS =           0.0000
     HEAD DEP BOUNDS =       55824.8320       HEAD DEP BOUNDS =         555.1071

           TOTAL OUT =       55824.8320             TOTAL OUT =         555.1071

            IN - OUT =         -14.5742              IN - OUT =          -0.3842

 PERCENT DISCREPANCY =          -0.03     PERCENT DISCREPANCY =          -0.07






         TIME SUMMARY AT END OF TIME STEP   69 IN STRESS PERIOD    2
                    SECONDS     MINUTES      HOURS       DAYS        YEARS
                    -----------------------------------------------------------
   TIME STEP LENGTH  86400.      1440.0      24.000      1.0000     2.73785E-03
 STRESS PERIOD TIME 5.96160E+06  99360.      1656.0      69.000     0.18891    
         TOTAL TIME 6.04800E+06 1.00800E+05  1680.0      70.000     0.19165    
1

 SOLVING FOR HEAD 
     1 ITERATIONS FOR TIME STEP  70 IN STRESS PERIOD    2

 OUTPUT CONTROL FOR STRESS PERIOD    2   TIME STEP   70
    SAVE HEAD FOR ALL LAYERS
    SAVE DRAWDOWN FOR ALL LAYERS
    SAVE BUDGET
    PRINT HEAD FOR ALL LAYERS
    PRINT BUDGET
 UBDSV1 SAVING "         STORAGE" ON UNIT  53 AT TIME STEP 70, STRESS PERIOD   2
 UBDSV2 SAVING "   CONSTANT HEAD" ON UNIT  53 AT TIME STEP 70, STRESS PERIOD   2
 UBDSV1 SAVING "FLOW RIGHT FACE " ON UNIT  53 AT TIME STEP 70, STRESS PERIOD   2
 UBDSV1 SAVING "FLOW FRONT FACE " ON UNIT  53 AT TIME STEP 70, STRESS PERIOD   2
1
              HEAD IN LAYER   1 AT END OF TIME STEP  70 IN STRESS PERIOD    2
  ---------------------------------------------------------------------------

            1           2           3           4           5           6           7           8           9          10
 ........................................................................................................................
   1    9.991       8.883       7.775       6.667       5.559       4.450       3.341       2.231       1.121      1.1101E-02
   2    9.991       8.883       7.775       6.667       5.559       4.450       3.341       2.231       1.121      1.1101E-02
   3    9.991       8.883       7.775       6.667       5.559       4.450       3.341       2.231       1.121      1.1101E-02
   4    9.991       8.883       7.775       6.667       5.559       4.450       3.341       2.231       1.121      1.1101E-02
   5    9.991       8.883       7.775       6.667       5.559       4.450       3.341       2.231       1.121      1.1101E-02
   6    9.991       8.883       7.775       6.667       5.559       4.450       3.341       2.231       1.121      1.1101E-02
   7    9.991       8.883       7.775       6.667       5.559       4.450       3.341       2.231       1.121      1.1101E-02
   8    9.991       8.883       7.775       6.667       5.559       4.450       3.341       2.231       1.121      1.1101E-02
   9    9.991       8.883       7.775       6.667       5.559       4.450       3.341       2.231       1.121      1.1101E-02
  10    9.991       8.883       7.775       6.667       5.559       4.450       3.341       2.231       1.121      1.1100E-02

 HEAD WILL BE SAVED ON UNIT   51 AT END OF TIME STEP   70, STRESS PERIOD    2

 DRAWDOWN WILL BE SAVED ON UNIT   52 AT END OF TIME STEP   70, STRESS PERIOD    2
1
  VOLUMETRIC BUDGET FOR ENTIRE MODEL AT END OF TIME STEP   70, STRESS PERIOD   2
  ------------------------------------------------------------------------------

     CUMULATIVE VOLUMES      L**3       RATES FOR THIS TIME STEP      L**3/T
     ------------------                 ------------------------

           IN:                                      IN:
           ---                                      ---
             STORAGE =       24985.1309               STORAGE =           0.8916
       CONSTANT HEAD =           0.0000         CONSTANT HEAD =           0.0000
               WELLS =           0.0000                 WELLS =           0.0000
     HEAD DEP BOUNDS =       31379.8281       HEAD DEP BOUNDS =         553.8066

            TOTAL IN =       56364.9609              TOTAL IN =         554.6982

          OUT:                                     OUT:
          ----                                     ----
             STORAGE =           0.0000               STORAGE =           0.0000
       CONSTANT HEAD =           0.0000         CONSTANT HEAD =           0.0000
               WELLS =           0.0000                 WELLS =           0.0000
     HEAD DEP BOUNDS =       56379.8828       HEAD DEP BOUNDS =         555.0526

           TOTAL OUT =       56379.8828             TOTAL OUT =         555.0526

            IN - OUT =         -14.9219              IN - OUT =          -0.3544

 PERCENT DISCREPANCY =          -0.03     PERCENT DISCREPANCY =          -0.06






         TIME SUMMARY AT END OF TIME STEP   70 IN STRESS PERIOD    2
                    SECONDS     MINUTES      HOURS       DAYS        YEARS
                    -----------------------------------------------------------
   TIME STEP LENGTH  86400.      1440.0      24.000      1.0000     2.73785E-03
 STRESS PERIOD TIME 6.04800E+06 1.00800E+05  1680.0      70.000     0.19165    
         TOTAL TIME 6.13440E+06 1.02240E+05  1704.0      71.000     0.19439    
1

 SOLVING FOR HEAD 
     1 ITERATIONS FOR TIME STEP  71 IN STRESS PERIOD    2

 OUTPUT CONTROL FOR STRESS PERIOD    2   TIME STEP   71
    SAVE HEAD FOR ALL LAYERS
    SAVE DRAWDOWN FOR ALL LAYERS
    SAVE BUDGET
    PRINT HEAD FOR ALL LAYERS
    PRINT BUDGET
 UBDSV1 SAVING "         STORAGE" ON UNIT  53 AT TIME STEP 71, STRESS PERIOD   2
 UBDSV2 SAVING "   CONSTANT HEAD" ON UNIT  53 AT TIME STEP 71, STRESS PERIOD   2
 UBDSV1 SAVING "FLOW RIGHT FACE " ON UNIT  53 AT TIME STEP 71, STRESS PERIOD   2
 UBDSV1 SAVING "FLOW FRONT FACE " ON UNIT  53 AT TIME STEP 71, STRESS PERIOD   2
1
              HEAD IN LAYER   1 AT END OF TIME STEP  71 IN STRESS PERIOD    2
  ---------------------------------------------------------------------------

            1           2           3           4           5           6           7           8           9          10
 ........................................................................................................................
   1    9.991       8.883       7.775       6.667       5.559       4.450       3.341       2.231       1.121      1.1100E-02
   2    9.991       8.883       7.775       6.667       5.559       4.450       3.341       2.231       1.121      1.1100E-02
   3    9.991       8.883       7.775       6.667       5.559       4.450       3.341       2.231       1.121      1.1100E-02
   4    9.991       8.883       7.775       6.667       5.559       4.450       3.341       2.231       1.121      1.1100E-02
   5    9.991       8.883       7.775       6.667       5.559       4.450       3.341       2.231       1.121      1.1100E-02
   6    9.991       8.883       7.775       6.667       5.559       4.450       3.341       2.231       1.121      1.1100E-02
   7    9.991       8.883       7.775       6.667       5.559       4.450       3.341       2.231       1.121      1.1100E-02
   8    9.991       8.883       7.775       6.667       5.559       4.450       3.341       2.231       1.121      1.1100E-02
   9    9.991       8.883       7.775       6.667       5.559       4.450       3.340       2.231       1.121      1.1100E-02
  10    9.991       8.883       7.775       6.667       5.559       4.450       3.340       2.231       1.121      1.1099E-02

 HEAD WILL BE SAVED ON UNIT   51 AT END OF TIME STEP   71, STRESS PERIOD    2

 DRAWDOWN WILL BE SAVED ON UNIT   52 AT END OF TIME STEP   71, STRESS PERIOD    2
1
  VOLUMETRIC BUDGET FOR ENTIRE MODEL AT END OF TIME STEP   71, STRESS PERIOD   2
  ------------------------------------------------------------------------------

     CUMULATIVE VOLUMES      L**3       RATES FOR THIS TIME STEP      L**3/T
     ------------------                 ------------------------

           IN:                                      IN:
           ---                                      ---
             STORAGE =       24985.9512               STORAGE =           0.8201
       CONSTANT HEAD =           0.0000         CONSTANT HEAD =           0.0000
               WELLS =           0.0000                 WELLS =           0.0000
     HEAD DEP BOUNDS =       31933.6836       HEAD DEP BOUNDS =         553.8553

            TOTAL IN =       56919.6328              TOTAL IN =         554.6755

          OUT:                                     OUT:
          ----                                     ----
             STORAGE =           0.0000               STORAGE =           0.0000
       CONSTANT HEAD =           0.0000         CONSTANT HEAD =           0.0000
               WELLS =           0.0000                 WELLS =           0.0000
     HEAD DEP BOUNDS =       56934.8867       HEAD DEP BOUNDS =         555.0024

           TOTAL OUT =       56934.8867             TOTAL OUT =         555.0024

            IN - OUT =         -15.2539              IN - OUT =          -0.3270

 PERCENT DISCREPANCY =          -0.03     PERCENT DISCREPANCY =          -0.06






         TIME SUMMARY AT END OF TIME STEP   71 IN STRESS PERIOD    2
                    SECONDS     MINUTES      HOURS       DAYS        YEARS
                    -----------------------------------------------------------
   TIME STEP LENGTH  86400.      1440.0      24.000      1.0000     2.73785E-03
 STRESS PERIOD TIME 6.13440E+06 1.02240E+05  1704.0      71.000     0.19439    
         TOTAL TIME 6.22080E+06 1.03680E+05  1728.0      72.000     0.19713    
1

 SOLVING FOR HEAD 
     1 ITERATIONS FOR TIME STEP  72 IN STRESS PERIOD    2

 OUTPUT CONTROL FOR STRESS PERIOD    2   TIME STEP   72
    SAVE HEAD FOR ALL LAYERS
    SAVE DRAWDOWN FOR ALL LAYERS
    SAVE BUDGET
    PRINT HEAD FOR ALL LAYERS
    PRINT BUDGET
 UBDSV1 SAVING "         STORAGE" ON UNIT  53 AT TIME STEP 72, STRESS PERIOD   2
 UBDSV2 SAVING "   CONSTANT HEAD" ON UNIT  53 AT TIME STEP 72, STRESS PERIOD   2
 UBDSV1 SAVING "FLOW RIGHT FACE " ON UNIT  53 AT TIME STEP 72, STRESS PERIOD   2
 UBDSV1 SAVING "FLOW FRONT FACE " ON UNIT  53 AT TIME STEP 72, STRESS PERIOD   2
1
              HEAD IN LAYER   1 AT END OF TIME STEP  72 IN STRESS PERIOD    2
  ---------------------------------------------------------------------------

            1           2           3           4           5           6           7           8           9          10
 ........................................................................................................................
   1    9.991       8.883       7.775       6.667       5.558       4.449       3.340       2.231       1.121      1.1099E-02
   2    9.991       8.883       7.775       6.667       5.558       4.450       3.340       2.231       1.121      1.1099E-02
   3    9.991       8.883       7.775       6.667       5.558       4.450       3.340       2.231       1.121      1.1099E-02
   4    9.991       8.883       7.775       6.667       5.558       4.450       3.340       2.231       1.121      1.1099E-02
   5    9.991       8.883       7.775       6.667       5.558       4.450       3.340       2.231       1.121      1.1099E-02
   6    9.991       8.883       7.775       6.667       5.558       4.450       3.340       2.231       1.121      1.1099E-02
   7    9.991       8.883       7.775       6.667       5.558       4.450       3.340       2.231       1.121      1.1099E-02
   8    9.991       8.883       7.775       6.667       5.558       4.449       3.340       2.231       1.121      1.1099E-02
   9    9.991       8.883       7.775       6.667       5.558       4.449       3.340       2.231       1.121      1.1099E-02
  10    9.991       8.883       7.775       6.667       5.558       4.449       3.340       2.231       1.121      1.1098E-02

 HEAD WILL BE SAVED ON UNIT   51 AT END OF TIME STEP   72, STRESS PERIOD    2

 DRAWDOWN WILL BE SAVED ON UNIT   52 AT END OF TIME STEP   72, STRESS PERIOD    2
1
  VOLUMETRIC BUDGET FOR ENTIRE MODEL AT END OF TIME STEP   72, STRESS PERIOD   2
  ------------------------------------------------------------------------------

     CUMULATIVE VOLUMES      L**3       RATES FOR THIS TIME STEP      L**3/T
     ------------------                 ------------------------

           IN:                                      IN:
           ---                                      ---
             STORAGE =       24986.7051               STORAGE =           0.7547
       CONSTANT HEAD =           0.0000         CONSTANT HEAD =           0.0000
               WELLS =           0.0000                 WELLS =           0.0000
     HEAD DEP BOUNDS =       32487.5840       HEAD DEP BOUNDS =         553.9002

            TOTAL IN =       57474.2891              TOTAL IN =         554.6549

          OUT:                                     OUT:
          ----                                     ----
             STORAGE =           0.0000               STORAGE =           0.0000
       CONSTANT HEAD =           0.0000         CONSTANT HEAD =           0.0000
               WELLS =           0.0000                 WELLS =           0.0000
     HEAD DEP BOUNDS =       57489.8438       HEAD DEP BOUNDS =         554.9563

           TOTAL OUT =       57489.8438             TOTAL OUT =         554.9563

            IN - OUT =         -15.5547              IN - OUT =          -0.3014

 PERCENT DISCREPANCY =          -0.03     PERCENT DISCREPANCY =          -0.05






         TIME SUMMARY AT END OF TIME STEP   72 IN STRESS PERIOD    2
                    SECONDS     MINUTES      HOURS       DAYS        YEARS
                    -----------------------------------------------------------
   TIME STEP LENGTH  86400.      1440.0      24.000      1.0000     2.73785E-03
 STRESS PERIOD TIME 6.22080E+06 1.03680E+05  1728.0      72.000     0.19713    
         TOTAL TIME 6.30720E+06 1.05120E+05  1752.0      73.000     0.19986    
1

 SOLVING FOR HEAD 
     1 ITERATIONS FOR TIME STEP  73 IN STRESS PERIOD    2

 OUTPUT CONTROL FOR STRESS PERIOD    2   TIME STEP   73
    SAVE HEAD FOR ALL LAYERS
    SAVE DRAWDOWN FOR ALL LAYERS
    SAVE BUDGET
    PRINT HEAD FOR ALL LAYERS
    PRINT BUDGET
 UBDSV1 SAVING "         STORAGE" ON UNIT  53 AT TIME STEP 73, STRESS PERIOD   2
 UBDSV2 SAVING "   CONSTANT HEAD" ON UNIT  53 AT TIME STEP 73, STRESS PERIOD   2
 UBDSV1 SAVING "FLOW RIGHT FACE " ON UNIT  53 AT TIME STEP 73, STRESS PERIOD   2
 UBDSV1 SAVING "FLOW FRONT FACE " ON UNIT  53 AT TIME STEP 73, STRESS PERIOD   2
1
              HEAD IN LAYER   1 AT END OF TIME STEP  73 IN STRESS PERIOD    2
  ---------------------------------------------------------------------------

            1           2           3           4           5           6           7           8           9          10
 ........................................................................................................................
   1    9.991       8.883       7.775       6.667       5.558       4.449       3.340       2.231       1.121      1.1098E-02
   2    9.991       8.883       7.775       6.667       5.558       4.449       3.340       2.231       1.121      1.1098E-02
   3    9.991       8.883       7.775       6.667       5.558       4.449       3.340       2.231       1.121      1.1098E-02
   4    9.991       8.883       7.775       6.667       5.558       4.449       3.340       2.231       1.121      1.1098E-02
   5    9.991       8.883       7.775       6.667       5.558       4.449       3.340       2.231       1.121      1.1098E-02
   6    9.991       8.883       7.775       6.667       5.558       4.449       3.340       2.231       1.121      1.1098E-02
   7    9.991       8.883       7.775       6.667       5.558       4.449       3.340       2.231       1.121      1.1098E-02
   8    9.991       8.883       7.775       6.667       5.558       4.449       3.340       2.231       1.121      1.1098E-02
   9    9.991       8.883       7.775       6.667       5.558       4.449       3.340       2.231       1.121      1.1098E-02
  10    9.991       8.883       7.775       6.667       5.558       4.449       3.340       2.231       1.121      1.1098E-02

 HEAD WILL BE SAVED ON UNIT   51 AT END OF TIME STEP   73, STRESS PERIOD    2

 DRAWDOWN WILL BE SAVED ON UNIT   52 AT END OF TIME STEP   73, STRESS PERIOD    2
1
  VOLUMETRIC BUDGET FOR ENTIRE MODEL AT END OF TIME STEP   73, STRESS PERIOD   2
  ------------------------------------------------------------------------------

     CUMULATIVE VOLUMES      L**3       RATES FOR THIS TIME STEP      L**3/T
     ------------------                 ------------------------

           IN:                                      IN:
           ---                                      ---
             STORAGE =       24987.3984               STORAGE =           0.6943
       CONSTANT HEAD =           0.0000         CONSTANT HEAD =           0.0000
               WELLS =           0.0000                 WELLS =           0.0000
     HEAD DEP BOUNDS =       33041.5273       HEAD DEP BOUNDS =         553.9415

            TOTAL IN =       58028.9258              TOTAL IN =         554.6357

          OUT:                                     OUT:
          ----                                     ----
             STORAGE =           0.0000               STORAGE =           0.0000
       CONSTANT HEAD =           0.0000         CONSTANT HEAD =           0.0000
               WELLS =           0.0000                 WELLS =           0.0000
     HEAD DEP BOUNDS =       58044.7578       HEAD DEP BOUNDS =         554.9138

           TOTAL OUT =       58044.7578             TOTAL OUT =         554.9138

            IN - OUT =         -15.8320              IN - OUT =          -0.2781

 PERCENT DISCREPANCY =          -0.03     PERCENT DISCREPANCY =          -0.05






         TIME SUMMARY AT END OF TIME STEP   73 IN STRESS PERIOD    2
                    SECONDS     MINUTES      HOURS       DAYS        YEARS
                    -----------------------------------------------------------
   TIME STEP LENGTH  86400.      1440.0      24.000      1.0000     2.73785E-03
 STRESS PERIOD TIME 6.30720E+06 1.05120E+05  1752.0      73.000     0.19986    
         TOTAL TIME 6.39360E+06 1.06560E+05  1776.0      74.000     0.20260    
1

 SOLVING FOR HEAD 
     1 ITERATIONS FOR TIME STEP  74 IN STRESS PERIOD    2

 OUTPUT CONTROL FOR STRESS PERIOD    2   TIME STEP   74
    SAVE HEAD FOR ALL LAYERS
    SAVE DRAWDOWN FOR ALL LAYERS
    SAVE BUDGET
    PRINT HEAD FOR ALL LAYERS
    PRINT BUDGET
 UBDSV1 SAVING "         STORAGE" ON UNIT  53 AT TIME STEP 74, STRESS PERIOD   2
 UBDSV2 SAVING "   CONSTANT HEAD" ON UNIT  53 AT TIME STEP 74, STRESS PERIOD   2
 UBDSV1 SAVING "FLOW RIGHT FACE " ON UNIT  53 AT TIME STEP 74, STRESS PERIOD   2
 UBDSV1 SAVING "FLOW FRONT FACE " ON UNIT  53 AT TIME STEP 74, STRESS PERIOD   2
1
              HEAD IN LAYER   1 AT END OF TIME STEP  74 IN STRESS PERIOD    2
  ---------------------------------------------------------------------------

            1           2           3           4           5           6           7           8           9          10
 ........................................................................................................................
   1    9.991       8.883       7.775       6.666       5.558       4.449       3.340       2.230       1.121      1.1098E-02
   2    9.991       8.883       7.775       6.666       5.558       4.449       3.340       2.230       1.121      1.1098E-02
   3    9.991       8.883       7.775       6.666       5.558       4.449       3.340       2.230       1.121      1.1098E-02
   4    9.991       8.883       7.775       6.666       5.558       4.449       3.340       2.230       1.121      1.1098E-02
   5    9.991       8.883       7.775       6.666       5.558       4.449       3.340       2.230       1.121      1.1098E-02
   6    9.991       8.883       7.775       6.666       5.558       4.449       3.340       2.230       1.121      1.1098E-02
   7    9.991       8.883       7.775       6.666       5.558       4.449       3.340       2.230       1.121      1.1098E-02
   8    9.991       8.883       7.775       6.666       5.558       4.449       3.340       2.230       1.121      1.1097E-02
   9    9.991       8.883       7.775       6.666       5.558       4.449       3.340       2.230       1.121      1.1097E-02
  10    9.991       8.883       7.775       6.666       5.558       4.449       3.340       2.230       1.121      1.1097E-02

 HEAD WILL BE SAVED ON UNIT   51 AT END OF TIME STEP   74, STRESS PERIOD    2

 DRAWDOWN WILL BE SAVED ON UNIT   52 AT END OF TIME STEP   74, STRESS PERIOD    2
1
  VOLUMETRIC BUDGET FOR ENTIRE MODEL AT END OF TIME STEP   74, STRESS PERIOD   2
  ------------------------------------------------------------------------------

     CUMULATIVE VOLUMES      L**3       RATES FOR THIS TIME STEP      L**3/T
     ------------------                 ------------------------

           IN:                                      IN:
           ---                                      ---
             STORAGE =       24988.0371               STORAGE =           0.6383
       CONSTANT HEAD =           0.0000         CONSTANT HEAD =           0.0000
               WELLS =           0.0000                 WELLS =           0.0000
     HEAD DEP BOUNDS =       33595.5078       HEAD DEP BOUNDS =         553.9794

            TOTAL IN =       58583.5469              TOTAL IN =         554.6177

          OUT:                                     OUT:
          ----                                     ----
             STORAGE =           0.0000               STORAGE =           0.0000
       CONSTANT HEAD =           0.0000         CONSTANT HEAD =           0.0000
               WELLS =           0.0000                 WELLS =           0.0000
     HEAD DEP BOUNDS =       58599.6328       HEAD DEP BOUNDS =         554.8748

           TOTAL OUT =       58599.6328             TOTAL OUT =         554.8748

            IN - OUT =         -16.0859              IN - OUT =          -0.2571

 PERCENT DISCREPANCY =          -0.03     PERCENT DISCREPANCY =          -0.05






         TIME SUMMARY AT END OF TIME STEP   74 IN STRESS PERIOD    2
                    SECONDS     MINUTES      HOURS       DAYS        YEARS
                    -----------------------------------------------------------
   TIME STEP LENGTH  86400.      1440.0      24.000      1.0000     2.73785E-03
 STRESS PERIOD TIME 6.39360E+06 1.06560E+05  1776.0      74.000     0.20260    
         TOTAL TIME 6.48000E+06 1.08000E+05  1800.0      75.000     0.20534    
1

 SOLVING FOR HEAD 
     1 ITERATIONS FOR TIME STEP  75 IN STRESS PERIOD    2

 OUTPUT CONTROL FOR STRESS PERIOD    2   TIME STEP   75
    SAVE HEAD FOR ALL LAYERS
    SAVE DRAWDOWN FOR ALL LAYERS
    SAVE BUDGET
    PRINT HEAD FOR ALL LAYERS
    PRINT BUDGET
 UBDSV1 SAVING "         STORAGE" ON UNIT  53 AT TIME STEP 75, STRESS PERIOD   2
 UBDSV2 SAVING "   CONSTANT HEAD" ON UNIT  53 AT TIME STEP 75, STRESS PERIOD   2
 UBDSV1 SAVING "FLOW RIGHT FACE " ON UNIT  53 AT TIME STEP 75, STRESS PERIOD   2
 UBDSV1 SAVING "FLOW FRONT FACE " ON UNIT  53 AT TIME STEP 75, STRESS PERIOD   2
1
              HEAD IN LAYER   1 AT END OF TIME STEP  75 IN STRESS PERIOD    2
  ---------------------------------------------------------------------------

            1           2           3           4           5           6           7           8           9          10
 ........................................................................................................................
   1    9.991       8.883       7.775       6.666       5.558       4.449       3.340       2.230       1.121      1.1097E-02
   2    9.991       8.883       7.775       6.666       5.558       4.449       3.340       2.230       1.121      1.1097E-02
   3    9.991       8.883       7.775       6.666       5.558       4.449       3.340       2.230       1.121      1.1097E-02
   4    9.991       8.883       7.775       6.666       5.558       4.449       3.340       2.230       1.121      1.1097E-02
   5    9.991       8.883       7.775       6.666       5.558       4.449       3.340       2.230       1.121      1.1097E-02
   6    9.991       8.883       7.775       6.666       5.558       4.449       3.340       2.230       1.121      1.1097E-02
   7    9.991       8.883       7.775       6.666       5.558       4.449       3.340       2.230       1.121      1.1097E-02
   8    9.991       8.883       7.775       6.666       5.558       4.449       3.340       2.230       1.121      1.1097E-02
   9    9.991       8.883       7.775       6.666       5.558       4.449       3.340       2.230       1.121      1.1097E-02
  10    9.991       8.883       7.775       6.666       5.558       4.449       3.340       2.230       1.121      1.1096E-02

 HEAD WILL BE SAVED ON UNIT   51 AT END OF TIME STEP   75, STRESS PERIOD    2

 DRAWDOWN WILL BE SAVED ON UNIT   52 AT END OF TIME STEP   75, STRESS PERIOD    2
1
  VOLUMETRIC BUDGET FOR ENTIRE MODEL AT END OF TIME STEP   75, STRESS PERIOD   2
  ------------------------------------------------------------------------------

     CUMULATIVE VOLUMES      L**3       RATES FOR THIS TIME STEP      L**3/T
     ------------------                 ------------------------

           IN:                                      IN:
           ---                                      ---
             STORAGE =       24988.6250               STORAGE =           0.5873
       CONSTANT HEAD =           0.0000         CONSTANT HEAD =           0.0000
               WELLS =           0.0000                 WELLS =           0.0000
     HEAD DEP BOUNDS =       34149.5234       HEAD DEP BOUNDS =         554.0143

            TOTAL IN =       59138.1484              TOTAL IN =         554.6016

          OUT:                                     OUT:
          ----                                     ----
             STORAGE =           0.0000               STORAGE =           0.0000
       CONSTANT HEAD =           0.0000         CONSTANT HEAD =           0.0000
               WELLS =           0.0000                 WELLS =           0.0000
     HEAD DEP BOUNDS =       59154.4727       HEAD DEP BOUNDS =         554.8389

           TOTAL OUT =       59154.4727             TOTAL OUT =         554.8389

            IN - OUT =         -16.3242              IN - OUT =          -0.2372

 PERCENT DISCREPANCY =          -0.03     PERCENT DISCREPANCY =          -0.04






         TIME SUMMARY AT END OF TIME STEP   75 IN STRESS PERIOD    2
                    SECONDS     MINUTES      HOURS       DAYS        YEARS
                    -----------------------------------------------------------
   TIME STEP LENGTH  86400.      1440.0      24.000      1.0000     2.73785E-03
 STRESS PERIOD TIME 6.48000E+06 1.08000E+05  1800.0      75.000     0.20534    
         TOTAL TIME 6.56640E+06 1.09440E+05  1824.0      76.000     0.20808    
1

 SOLVING FOR HEAD 
     1 ITERATIONS FOR TIME STEP  76 IN STRESS PERIOD    2

 OUTPUT CONTROL FOR STRESS PERIOD    2   TIME STEP   76
    SAVE HEAD FOR ALL LAYERS
    SAVE DRAWDOWN FOR ALL LAYERS
    SAVE BUDGET
    PRINT HEAD FOR ALL LAYERS
    PRINT BUDGET
 UBDSV1 SAVING "         STORAGE" ON UNIT  53 AT TIME STEP 76, STRESS PERIOD   2
 UBDSV2 SAVING "   CONSTANT HEAD" ON UNIT  53 AT TIME STEP 76, STRESS PERIOD   2
 UBDSV1 SAVING "FLOW RIGHT FACE " ON UNIT  53 AT TIME STEP 76, STRESS PERIOD   2
 UBDSV1 SAVING "FLOW FRONT FACE " ON UNIT  53 AT TIME STEP 76, STRESS PERIOD   2
1
              HEAD IN LAYER   1 AT END OF TIME STEP  76 IN STRESS PERIOD    2
  ---------------------------------------------------------------------------

            1           2           3           4           5           6           7           8           9          10
 ........................................................................................................................
   1    9.991       8.883       7.774       6.666       5.557       4.449       3.340       2.230       1.121      1.1096E-02
   2    9.991       8.883       7.774       6.666       5.558       4.449       3.340       2.230       1.121      1.1096E-02
   3    9.991       8.883       7.774       6.666       5.558       4.449       3.340       2.230       1.121      1.1096E-02
   4    9.991       8.883       7.774       6.666       5.558       4.449       3.340       2.230       1.121      1.1096E-02
   5    9.991       8.883       7.774       6.666       5.558       4.449       3.340       2.230       1.121      1.1096E-02
   6    9.991       8.883       7.774       6.666       5.558       4.449       3.340       2.230       1.121      1.1096E-02
   7    9.991       8.883       7.774       6.666       5.558       4.449       3.340       2.230       1.121      1.1096E-02
   8    9.991       8.883       7.774       6.666       5.557       4.449       3.340       2.230       1.121      1.1096E-02
   9    9.991       8.883       7.774       6.666       5.557       4.449       3.340       2.230       1.121      1.1096E-02
  10    9.991       8.883       7.774       6.666       5.557       4.449       3.339       2.230       1.121      1.1096E-02

 HEAD WILL BE SAVED ON UNIT   51 AT END OF TIME STEP   76, STRESS PERIOD    2

 DRAWDOWN WILL BE SAVED ON UNIT   52 AT END OF TIME STEP   76, STRESS PERIOD    2
1
  VOLUMETRIC BUDGET FOR ENTIRE MODEL AT END OF TIME STEP   76, STRESS PERIOD   2
  ------------------------------------------------------------------------------

     CUMULATIVE VOLUMES      L**3       RATES FOR THIS TIME STEP      L**3/T
     ------------------                 ------------------------

           IN:                                      IN:
           ---                                      ---
             STORAGE =       24989.1660               STORAGE =           0.5407
       CONSTANT HEAD =           0.0000         CONSTANT HEAD =           0.0000
               WELLS =           0.0000                 WELLS =           0.0000
     HEAD DEP BOUNDS =       34703.5703       HEAD DEP BOUNDS =         554.0464

            TOTAL IN =       59692.7344              TOTAL IN =         554.5871

          OUT:                                     OUT:
          ----                                     ----
             STORAGE =           0.0000               STORAGE =           0.0000
       CONSTANT HEAD =           0.0000         CONSTANT HEAD =           0.0000
               WELLS =           0.0000                 WELLS =           0.0000
     HEAD DEP BOUNDS =       59709.2773       HEAD DEP BOUNDS =         554.8058

           TOTAL OUT =       59709.2773             TOTAL OUT =         554.8058

            IN - OUT =         -16.5430              IN - OUT =          -0.2187

 PERCENT DISCREPANCY =          -0.03     PERCENT DISCREPANCY =          -0.04






         TIME SUMMARY AT END OF TIME STEP   76 IN STRESS PERIOD    2
                    SECONDS     MINUTES      HOURS       DAYS        YEARS
                    -----------------------------------------------------------
   TIME STEP LENGTH  86400.      1440.0      24.000      1.0000     2.73785E-03
 STRESS PERIOD TIME 6.56640E+06 1.09440E+05  1824.0      76.000     0.20808    
         TOTAL TIME 6.65280E+06 1.10880E+05  1848.0      77.000     0.21081    
1

 SOLVING FOR HEAD 
     1 ITERATIONS FOR TIME STEP  77 IN STRESS PERIOD    2

 OUTPUT CONTROL FOR STRESS PERIOD    2   TIME STEP   77
    SAVE HEAD FOR ALL LAYERS
    SAVE DRAWDOWN FOR ALL LAYERS
    SAVE BUDGET
    PRINT HEAD FOR ALL LAYERS
    PRINT BUDGET
 UBDSV1 SAVING "         STORAGE" ON UNIT  53 AT TIME STEP 77, STRESS PERIOD   2
 UBDSV2 SAVING "   CONSTANT HEAD" ON UNIT  53 AT TIME STEP 77, STRESS PERIOD   2
 UBDSV1 SAVING "FLOW RIGHT FACE " ON UNIT  53 AT TIME STEP 77, STRESS PERIOD   2
 UBDSV1 SAVING "FLOW FRONT FACE " ON UNIT  53 AT TIME STEP 77, STRESS PERIOD   2
1
              HEAD IN LAYER   1 AT END OF TIME STEP  77 IN STRESS PERIOD    2
  ---------------------------------------------------------------------------

            1           2           3           4           5           6           7           8           9          10
 ........................................................................................................................
   1    9.991       8.883       7.774       6.666       5.557       4.448       3.339       2.230       1.121      1.1096E-02
   2    9.991       8.883       7.774       6.666       5.557       4.448       3.339       2.230       1.121      1.1096E-02
   3    9.991       8.883       7.774       6.666       5.557       4.448       3.339       2.230       1.121      1.1096E-02
   4    9.991       8.883       7.774       6.666       5.557       4.449       3.339       2.230       1.121      1.1096E-02
   5    9.991       8.883       7.774       6.666       5.557       4.449       3.339       2.230       1.121      1.1096E-02
   6    9.991       8.883       7.774       6.666       5.557       4.448       3.339       2.230       1.121      1.1096E-02
   7    9.991       8.883       7.774       6.666       5.557       4.448       3.339       2.230       1.121      1.1096E-02
   8    9.991       8.883       7.774       6.666       5.557       4.448       3.339       2.230       1.121      1.1095E-02
   9    9.991       8.883       7.774       6.666       5.557       4.448       3.339       2.230       1.121      1.1095E-02
  10    9.991       8.883       7.774       6.666       5.557       4.448       3.339       2.230       1.121      1.1095E-02

 HEAD WILL BE SAVED ON UNIT   51 AT END OF TIME STEP   77, STRESS PERIOD    2

 DRAWDOWN WILL BE SAVED ON UNIT   52 AT END OF TIME STEP   77, STRESS PERIOD    2
1
  VOLUMETRIC BUDGET FOR ENTIRE MODEL AT END OF TIME STEP   77, STRESS PERIOD   2
  ------------------------------------------------------------------------------

     CUMULATIVE VOLUMES      L**3       RATES FOR THIS TIME STEP      L**3/T
     ------------------                 ------------------------

           IN:                                      IN:
           ---                                      ---
             STORAGE =       24989.6621               STORAGE =           0.4969
       CONSTANT HEAD =           0.0000         CONSTANT HEAD =           0.0000
               WELLS =           0.0000                 WELLS =           0.0000
     HEAD DEP BOUNDS =       35257.6445       HEAD DEP BOUNDS =         554.0760

            TOTAL IN =       60247.3047              TOTAL IN =         554.5729

          OUT:                                     OUT:
          ----                                     ----
             STORAGE =           0.0000               STORAGE =           0.0000
       CONSTANT HEAD =           0.0000         CONSTANT HEAD =           0.0000
               WELLS =           0.0000                 WELLS =           0.0000
     HEAD DEP BOUNDS =       60264.0547       HEAD DEP BOUNDS =         554.7754

           TOTAL OUT =       60264.0547             TOTAL OUT =         554.7754

            IN - OUT =         -16.7500              IN - OUT =          -0.2025

 PERCENT DISCREPANCY =          -0.03     PERCENT DISCREPANCY =          -0.04






         TIME SUMMARY AT END OF TIME STEP   77 IN STRESS PERIOD    2
                    SECONDS     MINUTES      HOURS       DAYS        YEARS
                    -----------------------------------------------------------
   TIME STEP LENGTH  86400.      1440.0      24.000      1.0000     2.73785E-03
 STRESS PERIOD TIME 6.65280E+06 1.10880E+05  1848.0      77.000     0.21081    
         TOTAL TIME 6.73920E+06 1.12320E+05  1872.0      78.000     0.21355    
1

 SOLVING FOR HEAD 
     1 ITERATIONS FOR TIME STEP  78 IN STRESS PERIOD    2

 OUTPUT CONTROL FOR STRESS PERIOD    2   TIME STEP   78
    SAVE HEAD FOR ALL LAYERS
    SAVE DRAWDOWN FOR ALL LAYERS
    SAVE BUDGET
    PRINT HEAD FOR ALL LAYERS
    PRINT BUDGET
 UBDSV1 SAVING "         STORAGE" ON UNIT  53 AT TIME STEP 78, STRESS PERIOD   2
 UBDSV2 SAVING "   CONSTANT HEAD" ON UNIT  53 AT TIME STEP 78, STRESS PERIOD   2
 UBDSV1 SAVING "FLOW RIGHT FACE " ON UNIT  53 AT TIME STEP 78, STRESS PERIOD   2
 UBDSV1 SAVING "FLOW FRONT FACE " ON UNIT  53 AT TIME STEP 78, STRESS PERIOD   2
1
              HEAD IN LAYER   1 AT END OF TIME STEP  78 IN STRESS PERIOD    2
  ---------------------------------------------------------------------------

            1           2           3           4           5           6           7           8           9          10
 ........................................................................................................................
   1    9.991       8.883       7.774       6.666       5.557       4.448       3.339       2.230       1.121      1.1095E-02
   2    9.991       8.883       7.774       6.666       5.557       4.448       3.339       2.230       1.121      1.1095E-02
   3    9.991       8.883       7.774       6.666       5.557       4.448       3.339       2.230       1.121      1.1095E-02
   4    9.991       8.883       7.774       6.666       5.557       4.448       3.339       2.230       1.121      1.1095E-02
   5    9.991       8.883       7.774       6.666       5.557       4.448       3.339       2.230       1.121      1.1095E-02
   6    9.991       8.883       7.774       6.666       5.557       4.448       3.339       2.230       1.121      1.1095E-02
   7    9.991       8.883       7.774       6.666       5.557       4.448       3.339       2.230       1.121      1.1095E-02
   8    9.991       8.883       7.774       6.666       5.557       4.448       3.339       2.230       1.121      1.1095E-02
   9    9.991       8.883       7.774       6.666       5.557       4.448       3.339       2.230       1.121      1.1095E-02
  10    9.991       8.883       7.774       6.666       5.557       4.448       3.339       2.230       1.121      1.1095E-02

 HEAD WILL BE SAVED ON UNIT   51 AT END OF TIME STEP   78, STRESS PERIOD    2

 DRAWDOWN WILL BE SAVED ON UNIT   52 AT END OF TIME STEP   78, STRESS PERIOD    2
1
  VOLUMETRIC BUDGET FOR ENTIRE MODEL AT END OF TIME STEP   78, STRESS PERIOD   2
  ------------------------------------------------------------------------------

     CUMULATIVE VOLUMES      L**3       RATES FOR THIS TIME STEP      L**3/T
     ------------------                 ------------------------

           IN:                                      IN:
           ---                                      ---
             STORAGE =       24990.1191               STORAGE =           0.4574
       CONSTANT HEAD =           0.0000         CONSTANT HEAD =           0.0000
               WELLS =           0.0000                 WELLS =           0.0000
     HEAD DEP BOUNDS =       35811.7461       HEAD DEP BOUNDS =         554.1031

            TOTAL IN =       60801.8672              TOTAL IN =         554.5605

          OUT:                                     OUT:
          ----                                     ----
             STORAGE =           0.0000               STORAGE =           0.0000
       CONSTANT HEAD =           0.0000         CONSTANT HEAD =           0.0000
               WELLS =           0.0000                 WELLS =           0.0000
     HEAD DEP BOUNDS =       60818.8008       HEAD DEP BOUNDS =         554.7474

           TOTAL OUT =       60818.8008             TOTAL OUT =         554.7474

            IN - OUT =         -16.9336              IN - OUT =          -0.1869

 PERCENT DISCREPANCY =          -0.03     PERCENT DISCREPANCY =          -0.03






         TIME SUMMARY AT END OF TIME STEP   78 IN STRESS PERIOD    2
                    SECONDS     MINUTES      HOURS       DAYS        YEARS
                    -----------------------------------------------------------
   TIME STEP LENGTH  86400.      1440.0      24.000      1.0000     2.73785E-03
 STRESS PERIOD TIME 6.73920E+06 1.12320E+05  1872.0      78.000     0.21355    
         TOTAL TIME 6.82560E+06 1.13760E+05  1896.0      79.000     0.21629    
1

 SOLVING FOR HEAD 
     1 ITERATIONS FOR TIME STEP  79 IN STRESS PERIOD    2

 OUTPUT CONTROL FOR STRESS PERIOD    2   TIME STEP   79
    SAVE HEAD FOR ALL LAYERS
    SAVE DRAWDOWN FOR ALL LAYERS
    SAVE BUDGET
    PRINT HEAD FOR ALL LAYERS
    PRINT BUDGET
 UBDSV1 SAVING "         STORAGE" ON UNIT  53 AT TIME STEP 79, STRESS PERIOD   2
 UBDSV2 SAVING "   CONSTANT HEAD" ON UNIT  53 AT TIME STEP 79, STRESS PERIOD   2
 UBDSV1 SAVING "FLOW RIGHT FACE " ON UNIT  53 AT TIME STEP 79, STRESS PERIOD   2
 UBDSV1 SAVING "FLOW FRONT FACE " ON UNIT  53 AT TIME STEP 79, STRESS PERIOD   2
1
              HEAD IN LAYER   1 AT END OF TIME STEP  79 IN STRESS PERIOD    2
  ---------------------------------------------------------------------------

            1           2           3           4           5           6           7           8           9          10
 ........................................................................................................................
   1    9.991       8.882       7.774       6.666       5.557       4.448       3.339       2.230       1.121      1.1095E-02
   2    9.991       8.882       7.774       6.666       5.557       4.448       3.339       2.230       1.121      1.1095E-02
   3    9.991       8.882       7.774       6.666       5.557       4.448       3.339       2.230       1.121      1.1095E-02
   4    9.991       8.882       7.774       6.666       5.557       4.448       3.339       2.230       1.121      1.1095E-02
   5    9.991       8.882       7.774       6.666       5.557       4.448       3.339       2.230       1.121      1.1095E-02
   6    9.991       8.882       7.774       6.666       5.557       4.448       3.339       2.230       1.121      1.1094E-02
   7    9.991       8.882       7.774       6.666       5.557       4.448       3.339       2.230       1.121      1.1094E-02
   8    9.991       8.882       7.774       6.666       5.557       4.448       3.339       2.230       1.121      1.1094E-02
   9    9.991       8.882       7.774       6.666       5.557       4.448       3.339       2.230       1.121      1.1094E-02
  10    9.991       8.882       7.774       6.666       5.557       4.448       3.339       2.230       1.121      1.1094E-02

 HEAD WILL BE SAVED ON UNIT   51 AT END OF TIME STEP   79, STRESS PERIOD    2

 DRAWDOWN WILL BE SAVED ON UNIT   52 AT END OF TIME STEP   79, STRESS PERIOD    2
1
  VOLUMETRIC BUDGET FOR ENTIRE MODEL AT END OF TIME STEP   79, STRESS PERIOD   2
  ------------------------------------------------------------------------------

     CUMULATIVE VOLUMES      L**3       RATES FOR THIS TIME STEP      L**3/T
     ------------------                 ------------------------

           IN:                                      IN:
           ---                                      ---
             STORAGE =       24990.5391               STORAGE =           0.4204
       CONSTANT HEAD =           0.0000         CONSTANT HEAD =           0.0000
               WELLS =           0.0000                 WELLS =           0.0000
     HEAD DEP BOUNDS =       36365.8750       HEAD DEP BOUNDS =         554.1282

            TOTAL IN =       61356.4141              TOTAL IN =         554.5486

          OUT:                                     OUT:
          ----                                     ----
             STORAGE =           0.0000               STORAGE =           0.0000
       CONSTANT HEAD =           0.0000         CONSTANT HEAD =           0.0000
               WELLS =           0.0000                 WELLS =           0.0000
     HEAD DEP BOUNDS =       61373.5234       HEAD DEP BOUNDS =         554.7217

           TOTAL OUT =       61373.5234             TOTAL OUT =         554.7217

            IN - OUT =         -17.1094              IN - OUT =          -0.1731

 PERCENT DISCREPANCY =          -0.03     PERCENT DISCREPANCY =          -0.03






         TIME SUMMARY AT END OF TIME STEP   79 IN STRESS PERIOD    2
                    SECONDS     MINUTES      HOURS       DAYS        YEARS
                    -----------------------------------------------------------
   TIME STEP LENGTH  86400.      1440.0      24.000      1.0000     2.73785E-03
 STRESS PERIOD TIME 6.82560E+06 1.13760E+05  1896.0      79.000     0.21629    
         TOTAL TIME 6.91200E+06 1.15200E+05  1920.0      80.000     0.21903    
1

 SOLVING FOR HEAD 
     1 ITERATIONS FOR TIME STEP  80 IN STRESS PERIOD    2

 OUTPUT CONTROL FOR STRESS PERIOD    2   TIME STEP   80
    SAVE HEAD FOR ALL LAYERS
    SAVE DRAWDOWN FOR ALL LAYERS
    SAVE BUDGET
    PRINT HEAD FOR ALL LAYERS
    PRINT BUDGET
 UBDSV1 SAVING "         STORAGE" ON UNIT  53 AT TIME STEP 80, STRESS PERIOD   2
 UBDSV2 SAVING "   CONSTANT HEAD" ON UNIT  53 AT TIME STEP 80, STRESS PERIOD   2
 UBDSV1 SAVING "FLOW RIGHT FACE " ON UNIT  53 AT TIME STEP 80, STRESS PERIOD   2
 UBDSV1 SAVING "FLOW FRONT FACE " ON UNIT  53 AT TIME STEP 80, STRESS PERIOD   2
1
              HEAD IN LAYER   1 AT END OF TIME STEP  80 IN STRESS PERIOD    2
  ---------------------------------------------------------------------------

            1           2           3           4           5           6           7           8           9          10
 ........................................................................................................................
   1    9.991       8.882       7.774       6.666       5.557       4.448       3.339       2.230       1.120      1.1094E-02
   2    9.991       8.882       7.774       6.666       5.557       4.448       3.339       2.230       1.120      1.1094E-02
   3    9.991       8.882       7.774       6.666       5.557       4.448       3.339       2.230       1.120      1.1094E-02
   4    9.991       8.882       7.774       6.666       5.557       4.448       3.339       2.230       1.120      1.1094E-02
   5    9.991       8.882       7.774       6.666       5.557       4.448       3.339       2.230       1.120      1.1094E-02
   6    9.991       8.882       7.774       6.666       5.557       4.448       3.339       2.230       1.120      1.1094E-02
   7    9.991       8.882       7.774       6.666       5.557       4.448       3.339       2.230       1.120      1.1094E-02
   8    9.991       8.882       7.774       6.666       5.557       4.448       3.339       2.230       1.120      1.1094E-02
   9    9.991       8.882       7.774       6.666       5.557       4.448       3.339       2.230       1.120      1.1094E-02
  10    9.991       8.882       7.774       6.666       5.557       4.448       3.339       2.230       1.120      1.1094E-02

 HEAD WILL BE SAVED ON UNIT   51 AT END OF TIME STEP   80, STRESS PERIOD    2

 DRAWDOWN WILL BE SAVED ON UNIT   52 AT END OF TIME STEP   80, STRESS PERIOD    2
1
  VOLUMETRIC BUDGET FOR ENTIRE MODEL AT END OF TIME STEP   80, STRESS PERIOD   2
  ------------------------------------------------------------------------------

     CUMULATIVE VOLUMES      L**3       RATES FOR THIS TIME STEP      L**3/T
     ------------------                 ------------------------

           IN:                                      IN:
           ---                                      ---
             STORAGE =       24990.9258               STORAGE =           0.3870
       CONSTANT HEAD =           0.0000         CONSTANT HEAD =           0.0000
               WELLS =           0.0000                 WELLS =           0.0000
     HEAD DEP BOUNDS =       36920.0273       HEAD DEP BOUNDS =         554.1512

            TOTAL IN =       61910.9531              TOTAL IN =         554.5382

          OUT:                                     OUT:
          ----                                     ----
             STORAGE =           0.0000               STORAGE =           0.0000
       CONSTANT HEAD =           0.0000         CONSTANT HEAD =           0.0000
               WELLS =           0.0000                 WELLS =           0.0000
     HEAD DEP BOUNDS =       61928.2227       HEAD DEP BOUNDS =         554.6981

           TOTAL OUT =       61928.2227             TOTAL OUT =         554.6981

            IN - OUT =         -17.2695              IN - OUT =          -0.1599

 PERCENT DISCREPANCY =          -0.03     PERCENT DISCREPANCY =          -0.03






         TIME SUMMARY AT END OF TIME STEP   80 IN STRESS PERIOD    2
                    SECONDS     MINUTES      HOURS       DAYS        YEARS
                    -----------------------------------------------------------
   TIME STEP LENGTH  86400.      1440.0      24.000      1.0000     2.73785E-03
 STRESS PERIOD TIME 6.91200E+06 1.15200E+05  1920.0      80.000     0.21903    
         TOTAL TIME 6.99840E+06 1.16640E+05  1944.0      81.000     0.22177    
1

 SOLVING FOR HEAD 
     1 ITERATIONS FOR TIME STEP  81 IN STRESS PERIOD    2

 OUTPUT CONTROL FOR STRESS PERIOD    2   TIME STEP   81
    SAVE HEAD FOR ALL LAYERS
    SAVE DRAWDOWN FOR ALL LAYERS
    SAVE BUDGET
    PRINT HEAD FOR ALL LAYERS
    PRINT BUDGET
 UBDSV1 SAVING "         STORAGE" ON UNIT  53 AT TIME STEP 81, STRESS PERIOD   2
 UBDSV2 SAVING "   CONSTANT HEAD" ON UNIT  53 AT TIME STEP 81, STRESS PERIOD   2
 UBDSV1 SAVING "FLOW RIGHT FACE " ON UNIT  53 AT TIME STEP 81, STRESS PERIOD   2
 UBDSV1 SAVING "FLOW FRONT FACE " ON UNIT  53 AT TIME STEP 81, STRESS PERIOD   2
1
              HEAD IN LAYER   1 AT END OF TIME STEP  81 IN STRESS PERIOD    2
  ---------------------------------------------------------------------------

            1           2           3           4           5           6           7           8           9          10
 ........................................................................................................................
   1    9.991       8.882       7.774       6.665       5.557       4.448       3.339       2.230       1.120      1.1094E-02
   2    9.991       8.882       7.774       6.665       5.557       4.448       3.339       2.230       1.120      1.1094E-02
   3    9.991       8.882       7.774       6.665       5.557       4.448       3.339       2.230       1.120      1.1094E-02
   4    9.991       8.882       7.774       6.665       5.557       4.448       3.339       2.230       1.120      1.1094E-02
   5    9.991       8.882       7.774       6.665       5.557       4.448       3.339       2.230       1.120      1.1094E-02
   6    9.991       8.882       7.774       6.665       5.557       4.448       3.339       2.230       1.120      1.1094E-02
   7    9.991       8.882       7.774       6.665       5.557       4.448       3.339       2.230       1.120      1.1094E-02
   8    9.991       8.882       7.774       6.665       5.557       4.448       3.339       2.230       1.120      1.1093E-02
   9    9.991       8.882       7.774       6.665       5.557       4.448       3.339       2.230       1.120      1.1093E-02
  10    9.991       8.882       7.774       6.665       5.557       4.448       3.339       2.230       1.120      1.1093E-02

 HEAD WILL BE SAVED ON UNIT   51 AT END OF TIME STEP   81, STRESS PERIOD    2

 DRAWDOWN WILL BE SAVED ON UNIT   52 AT END OF TIME STEP   81, STRESS PERIOD    2
1
  VOLUMETRIC BUDGET FOR ENTIRE MODEL AT END OF TIME STEP   81, STRESS PERIOD   2
  ------------------------------------------------------------------------------

     CUMULATIVE VOLUMES      L**3       RATES FOR THIS TIME STEP      L**3/T
     ------------------                 ------------------------

           IN:                                      IN:
           ---                                      ---
             STORAGE =       24991.2812               STORAGE =           0.3560
       CONSTANT HEAD =           0.0000         CONSTANT HEAD =           0.0000
               WELLS =           0.0000                 WELLS =           0.0000
     HEAD DEP BOUNDS =       37474.1992       HEAD DEP BOUNDS =         554.1724

            TOTAL IN =       62465.4805              TOTAL IN =         554.5284

          OUT:                                     OUT:
          ----                                     ----
             STORAGE =           0.0000               STORAGE =           0.0000
       CONSTANT HEAD =           0.0000         CONSTANT HEAD =           0.0000
               WELLS =           0.0000                 WELLS =           0.0000
     HEAD DEP BOUNDS =       62482.8984       HEAD DEP BOUNDS =         554.6763

           TOTAL OUT =       62482.8984             TOTAL OUT =         554.6763

            IN - OUT =         -17.4180              IN - OUT =          -0.1479

 PERCENT DISCREPANCY =          -0.03     PERCENT DISCREPANCY =          -0.03






         TIME SUMMARY AT END OF TIME STEP   81 IN STRESS PERIOD    2
                    SECONDS     MINUTES      HOURS       DAYS        YEARS
                    -----------------------------------------------------------
   TIME STEP LENGTH  86400.      1440.0      24.000      1.0000     2.73785E-03
 STRESS PERIOD TIME 6.99840E+06 1.16640E+05  1944.0      81.000     0.22177    
         TOTAL TIME 7.08480E+06 1.18080E+05  1968.0      82.000     0.22450    
1

 SOLVING FOR HEAD 
     1 ITERATIONS FOR TIME STEP  82 IN STRESS PERIOD    2

 OUTPUT CONTROL FOR STRESS PERIOD    2   TIME STEP   82
    SAVE HEAD FOR ALL LAYERS
    SAVE DRAWDOWN FOR ALL LAYERS
    SAVE BUDGET
    PRINT HEAD FOR ALL LAYERS
    PRINT BUDGET
 UBDSV1 SAVING "         STORAGE" ON UNIT  53 AT TIME STEP 82, STRESS PERIOD   2
 UBDSV2 SAVING "   CONSTANT HEAD" ON UNIT  53 AT TIME STEP 82, STRESS PERIOD   2
 UBDSV1 SAVING "FLOW RIGHT FACE " ON UNIT  53 AT TIME STEP 82, STRESS PERIOD   2
 UBDSV1 SAVING "FLOW FRONT FACE " ON UNIT  53 AT TIME STEP 82, STRESS PERIOD   2
1
              HEAD IN LAYER   1 AT END OF TIME STEP  82 IN STRESS PERIOD    2
  ---------------------------------------------------------------------------

            1           2           3           4           5           6           7           8           9          10
 ........................................................................................................................
   1    9.991       8.882       7.774       6.665       5.557       4.448       3.339       2.230       1.120      1.1093E-02
   2    9.991       8.882       7.774       6.665       5.557       4.448       3.339       2.230       1.120      1.1093E-02
   3    9.991       8.882       7.774       6.665       5.557       4.448       3.339       2.230       1.120      1.1093E-02
   4    9.991       8.882       7.774       6.665       5.557       4.448       3.339       2.230       1.120      1.1093E-02
   5    9.991       8.882       7.774       6.665       5.557       4.448       3.339       2.230       1.120      1.1093E-02
   6    9.991       8.882       7.774       6.665       5.557       4.448       3.339       2.230       1.120      1.1093E-02
   7    9.991       8.882       7.774       6.665       5.557       4.448       3.339       2.230       1.120      1.1093E-02
   8    9.991       8.882       7.774       6.665       5.557       4.448       3.339       2.230       1.120      1.1093E-02
   9    9.991       8.882       7.774       6.665       5.557       4.448       3.339       2.230       1.120      1.1093E-02
  10    9.991       8.882       7.774       6.665       5.557       4.448       3.339       2.230       1.120      1.1093E-02

 HEAD WILL BE SAVED ON UNIT   51 AT END OF TIME STEP   82, STRESS PERIOD    2

 DRAWDOWN WILL BE SAVED ON UNIT   52 AT END OF TIME STEP   82, STRESS PERIOD    2
1
  VOLUMETRIC BUDGET FOR ENTIRE MODEL AT END OF TIME STEP   82, STRESS PERIOD   2
  ------------------------------------------------------------------------------

     CUMULATIVE VOLUMES      L**3       RATES FOR THIS TIME STEP      L**3/T
     ------------------                 ------------------------

           IN:                                      IN:
           ---                                      ---
             STORAGE =       24991.6094               STORAGE =           0.3275
       CONSTANT HEAD =           0.0000         CONSTANT HEAD =           0.0000
               WELLS =           0.0000                 WELLS =           0.0000
     HEAD DEP BOUNDS =       38028.3906       HEAD DEP BOUNDS =         554.1918

            TOTAL IN =       63020.0000              TOTAL IN =         554.5193

          OUT:                                     OUT:
          ----                                     ----
             STORAGE =           0.0000               STORAGE =           0.0000
       CONSTANT HEAD =           0.0000         CONSTANT HEAD =           0.0000
               WELLS =           0.0000                 WELLS =           0.0000
     HEAD DEP BOUNDS =       63037.5547       HEAD DEP BOUNDS =         554.6562

           TOTAL OUT =       63037.5547             TOTAL OUT =         554.6562

            IN - OUT =         -17.5547              IN - OUT =          -0.1370

 PERCENT DISCREPANCY =          -0.03     PERCENT DISCREPANCY =          -0.02






         TIME SUMMARY AT END OF TIME STEP   82 IN STRESS PERIOD    2
                    SECONDS     MINUTES      HOURS       DAYS        YEARS
                    -----------------------------------------------------------
   TIME STEP LENGTH  86400.      1440.0      24.000      1.0000     2.73785E-03
 STRESS PERIOD TIME 7.08480E+06 1.18080E+05  1968.0      82.000     0.22450    
         TOTAL TIME 7.17120E+06 1.19520E+05  1992.0      83.000     0.22724    
1

 SOLVING FOR HEAD 
     1 ITERATIONS FOR TIME STEP  83 IN STRESS PERIOD    2

 OUTPUT CONTROL FOR STRESS PERIOD    2   TIME STEP   83
    SAVE HEAD FOR ALL LAYERS
    SAVE DRAWDOWN FOR ALL LAYERS
    SAVE BUDGET
    PRINT HEAD FOR ALL LAYERS
    PRINT BUDGET
 UBDSV1 SAVING "         STORAGE" ON UNIT  53 AT TIME STEP 83, STRESS PERIOD   2
 UBDSV2 SAVING "   CONSTANT HEAD" ON UNIT  53 AT TIME STEP 83, STRESS PERIOD   2
 UBDSV1 SAVING "FLOW RIGHT FACE " ON UNIT  53 AT TIME STEP 83, STRESS PERIOD   2
 UBDSV1 SAVING "FLOW FRONT FACE " ON UNIT  53 AT TIME STEP 83, STRESS PERIOD   2
1
              HEAD IN LAYER   1 AT END OF TIME STEP  83 IN STRESS PERIOD    2
  ---------------------------------------------------------------------------

            1           2           3           4           5           6           7           8           9          10
 ........................................................................................................................
   1    9.991       8.882       7.774       6.665       5.557       4.448       3.339       2.230       1.120      1.1093E-02
   2    9.991       8.882       7.774       6.665       5.557       4.448       3.339       2.230       1.120      1.1093E-02
   3    9.991       8.882       7.774       6.665       5.557       4.448       3.339       2.230       1.120      1.1093E-02
   4    9.991       8.882       7.774       6.665       5.557       4.448       3.339       2.230       1.120      1.1093E-02
   5    9.991       8.882       7.774       6.665       5.557       4.448       3.339       2.230       1.120      1.1093E-02
   6    9.991       8.882       7.774       6.665       5.557       4.448       3.339       2.230       1.120      1.1093E-02
   7    9.991       8.882       7.774       6.665       5.557       4.448       3.339       2.230       1.120      1.1093E-02
   8    9.991       8.882       7.774       6.665       5.557       4.448       3.339       2.230       1.120      1.1093E-02
   9    9.991       8.882       7.774       6.665       5.557       4.448       3.339       2.230       1.120      1.1093E-02
  10    9.991       8.882       7.774       6.665       5.557       4.448       3.339       2.230       1.120      1.1092E-02

 HEAD WILL BE SAVED ON UNIT   51 AT END OF TIME STEP   83, STRESS PERIOD    2

 DRAWDOWN WILL BE SAVED ON UNIT   52 AT END OF TIME STEP   83, STRESS PERIOD    2
1
  VOLUMETRIC BUDGET FOR ENTIRE MODEL AT END OF TIME STEP   83, STRESS PERIOD   2
  ------------------------------------------------------------------------------

     CUMULATIVE VOLUMES      L**3       RATES FOR THIS TIME STEP      L**3/T
     ------------------                 ------------------------

           IN:                                      IN:
           ---                                      ---
             STORAGE =       24991.9102               STORAGE =           0.3012
       CONSTANT HEAD =           0.0000         CONSTANT HEAD =           0.0000
               WELLS =           0.0000                 WELLS =           0.0000
     HEAD DEP BOUNDS =       38582.6016       HEAD DEP BOUNDS =         554.2097

            TOTAL IN =       63574.5117              TOTAL IN =         554.5109

          OUT:                                     OUT:
          ----                                     ----
             STORAGE =           0.0000               STORAGE =           0.0000
       CONSTANT HEAD =           0.0000         CONSTANT HEAD =           0.0000
               WELLS =           0.0000                 WELLS =           0.0000
     HEAD DEP BOUNDS =       63592.1914       HEAD DEP BOUNDS =         554.6378

           TOTAL OUT =       63592.1914             TOTAL OUT =         554.6378

            IN - OUT =         -17.6797              IN - OUT =          -0.1270

 PERCENT DISCREPANCY =          -0.03     PERCENT DISCREPANCY =          -0.02






         TIME SUMMARY AT END OF TIME STEP   83 IN STRESS PERIOD    2
                    SECONDS     MINUTES      HOURS       DAYS        YEARS
                    -----------------------------------------------------------
   TIME STEP LENGTH  86400.      1440.0      24.000      1.0000     2.73785E-03
 STRESS PERIOD TIME 7.17120E+06 1.19520E+05  1992.0      83.000     0.22724    
         TOTAL TIME 7.25760E+06 1.20960E+05  2016.0      84.000     0.22998    
1

 SOLVING FOR HEAD 
     1 ITERATIONS FOR TIME STEP  84 IN STRESS PERIOD    2

 OUTPUT CONTROL FOR STRESS PERIOD    2   TIME STEP   84
    SAVE HEAD FOR ALL LAYERS
    SAVE DRAWDOWN FOR ALL LAYERS
    SAVE BUDGET
    PRINT HEAD FOR ALL LAYERS
    PRINT BUDGET
 UBDSV1 SAVING "         STORAGE" ON UNIT  53 AT TIME STEP 84, STRESS PERIOD   2
 UBDSV2 SAVING "   CONSTANT HEAD" ON UNIT  53 AT TIME STEP 84, STRESS PERIOD   2
 UBDSV1 SAVING "FLOW RIGHT FACE " ON UNIT  53 AT TIME STEP 84, STRESS PERIOD   2
 UBDSV1 SAVING "FLOW FRONT FACE " ON UNIT  53 AT TIME STEP 84, STRESS PERIOD   2
1
              HEAD IN LAYER   1 AT END OF TIME STEP  84 IN STRESS PERIOD    2
  ---------------------------------------------------------------------------

            1           2           3           4           5           6           7           8           9          10
 ........................................................................................................................
   1    9.991       8.882       7.774       6.665       5.556       4.448       3.339       2.230       1.120      1.1092E-02
   2    9.991       8.882       7.774       6.665       5.556       4.448       3.339       2.230       1.120      1.1092E-02
   3    9.991       8.882       7.774       6.665       5.556       4.448       3.339       2.230       1.120      1.1092E-02
   4    9.991       8.882       7.774       6.665       5.556       4.448       3.339       2.230       1.120      1.1092E-02
   5    9.991       8.882       7.774       6.665       5.556       4.448       3.339       2.230       1.120      1.1092E-02
   6    9.991       8.882       7.774       6.665       5.556       4.448       3.339       2.230       1.120      1.1092E-02
   7    9.991       8.882       7.774       6.665       5.556       4.448       3.339       2.230       1.120      1.1092E-02
   8    9.991       8.882       7.774       6.665       5.556       4.448       3.339       2.230       1.120      1.1092E-02
   9    9.991       8.882       7.774       6.665       5.556       4.448       3.339       2.229       1.120      1.1092E-02
  10    9.991       8.882       7.774       6.665       5.556       4.448       3.339       2.229       1.120      1.1092E-02

 HEAD WILL BE SAVED ON UNIT   51 AT END OF TIME STEP   84, STRESS PERIOD    2

 DRAWDOWN WILL BE SAVED ON UNIT   52 AT END OF TIME STEP   84, STRESS PERIOD    2
1
  VOLUMETRIC BUDGET FOR ENTIRE MODEL AT END OF TIME STEP   84, STRESS PERIOD   2
  ------------------------------------------------------------------------------

     CUMULATIVE VOLUMES      L**3       RATES FOR THIS TIME STEP      L**3/T
     ------------------                 ------------------------

           IN:                                      IN:
           ---                                      ---
             STORAGE =       24992.1875               STORAGE =           0.2772
       CONSTANT HEAD =           0.0000         CONSTANT HEAD =           0.0000
               WELLS =           0.0000                 WELLS =           0.0000
     HEAD DEP BOUNDS =       39136.8281       HEAD DEP BOUNDS =         554.2261

            TOTAL IN =       64129.0156              TOTAL IN =         554.5033

          OUT:                                     OUT:
          ----                                     ----
             STORAGE =           0.0000               STORAGE =           0.0000
       CONSTANT HEAD =           0.0000         CONSTANT HEAD =           0.0000
               WELLS =           0.0000                 WELLS =           0.0000
     HEAD DEP BOUNDS =       64146.8125       HEAD DEP BOUNDS =         554.6208

           TOTAL OUT =       64146.8125             TOTAL OUT =         554.6208

            IN - OUT =         -17.7969              IN - OUT =          -0.1176

 PERCENT DISCREPANCY =          -0.03     PERCENT DISCREPANCY =          -0.02






         TIME SUMMARY AT END OF TIME STEP   84 IN STRESS PERIOD    2
                    SECONDS     MINUTES      HOURS       DAYS        YEARS
                    -----------------------------------------------------------
   TIME STEP LENGTH  86400.      1440.0      24.000      1.0000     2.73785E-03
 STRESS PERIOD TIME 7.25760E+06 1.20960E+05  2016.0      84.000     0.22998    
         TOTAL TIME 7.34400E+06 1.22400E+05  2040.0      85.000     0.23272    
1

 SOLVING FOR HEAD 
     1 ITERATIONS FOR TIME STEP  85 IN STRESS PERIOD    2

 OUTPUT CONTROL FOR STRESS PERIOD    2   TIME STEP   85
    SAVE HEAD FOR ALL LAYERS
    SAVE DRAWDOWN FOR ALL LAYERS
    SAVE BUDGET
    PRINT HEAD FOR ALL LAYERS
    PRINT BUDGET
 UBDSV1 SAVING "         STORAGE" ON UNIT  53 AT TIME STEP 85, STRESS PERIOD   2
 UBDSV2 SAVING "   CONSTANT HEAD" ON UNIT  53 AT TIME STEP 85, STRESS PERIOD   2
 UBDSV1 SAVING "FLOW RIGHT FACE " ON UNIT  53 AT TIME STEP 85, STRESS PERIOD   2
 UBDSV1 SAVING "FLOW FRONT FACE " ON UNIT  53 AT TIME STEP 85, STRESS PERIOD   2
1
              HEAD IN LAYER   1 AT END OF TIME STEP  85 IN STRESS PERIOD    2
  ---------------------------------------------------------------------------

            1           2           3           4           5           6           7           8           9          10
 ........................................................................................................................
   1    9.991       8.882       7.774       6.665       5.556       4.448       3.339       2.229       1.120      1.1092E-02
   2    9.991       8.882       7.774       6.665       5.556       4.448       3.339       2.229       1.120      1.1092E-02
   3    9.991       8.882       7.774       6.665       5.556       4.448       3.339       2.229       1.120      1.1092E-02
   4    9.991       8.882       7.774       6.665       5.556       4.448       3.339       2.229       1.120      1.1092E-02
   5    9.991       8.882       7.774       6.665       5.556       4.448       3.339       2.229       1.120      1.1092E-02
   6    9.991       8.882       7.774       6.665       5.556       4.448       3.339       2.229       1.120      1.1092E-02
   7    9.991       8.882       7.774       6.665       5.556       4.448       3.339       2.229       1.120      1.1092E-02
   8    9.991       8.882       7.774       6.665       5.556       4.448       3.339       2.229       1.120      1.1092E-02
   9    9.991       8.882       7.774       6.665       5.556       4.447       3.339       2.229       1.120      1.1092E-02
  10    9.991       8.882       7.774       6.665       5.556       4.447       3.339       2.229       1.120      1.1092E-02

 HEAD WILL BE SAVED ON UNIT   51 AT END OF TIME STEP   85, STRESS PERIOD    2

 DRAWDOWN WILL BE SAVED ON UNIT   52 AT END OF TIME STEP   85, STRESS PERIOD    2
1
  VOLUMETRIC BUDGET FOR ENTIRE MODEL AT END OF TIME STEP   85, STRESS PERIOD   2
  ------------------------------------------------------------------------------

     CUMULATIVE VOLUMES      L**3       RATES FOR THIS TIME STEP      L**3/T
     ------------------                 ------------------------

           IN:                                      IN:
           ---                                      ---
             STORAGE =       24992.4414               STORAGE =           0.2547
       CONSTANT HEAD =           0.0000         CONSTANT HEAD =           0.0000
               WELLS =           0.0000                 WELLS =           0.0000
     HEAD DEP BOUNDS =       39691.0703       HEAD DEP BOUNDS =         554.2413

            TOTAL IN =       64683.5117              TOTAL IN =         554.4960

          OUT:                                     OUT:
          ----                                     ----
             STORAGE =           0.0000               STORAGE =           0.0000
       CONSTANT HEAD =           0.0000         CONSTANT HEAD =           0.0000
               WELLS =           0.0000                 WELLS =           0.0000
     HEAD DEP BOUNDS =       64701.4180       HEAD DEP BOUNDS =         554.6053

           TOTAL OUT =       64701.4180             TOTAL OUT =         554.6053

            IN - OUT =         -17.9062              IN - OUT =          -0.1093

 PERCENT DISCREPANCY =          -0.03     PERCENT DISCREPANCY =          -0.02






         TIME SUMMARY AT END OF TIME STEP   85 IN STRESS PERIOD    2
                    SECONDS     MINUTES      HOURS       DAYS        YEARS
                    -----------------------------------------------------------
   TIME STEP LENGTH  86400.      1440.0      24.000      1.0000     2.73785E-03
 STRESS PERIOD TIME 7.34400E+06 1.22400E+05  2040.0      85.000     0.23272    
         TOTAL TIME 7.43040E+06 1.23840E+05  2064.0      86.000     0.23546    
1

 SOLVING FOR HEAD 
     1 ITERATIONS FOR TIME STEP  86 IN STRESS PERIOD    2

 OUTPUT CONTROL FOR STRESS PERIOD    2   TIME STEP   86
    SAVE HEAD FOR ALL LAYERS
    SAVE DRAWDOWN FOR ALL LAYERS
    SAVE BUDGET
    PRINT HEAD FOR ALL LAYERS
    PRINT BUDGET
 UBDSV1 SAVING "         STORAGE" ON UNIT  53 AT TIME STEP 86, STRESS PERIOD   2
 UBDSV2 SAVING "   CONSTANT HEAD" ON UNIT  53 AT TIME STEP 86, STRESS PERIOD   2
 UBDSV1 SAVING "FLOW RIGHT FACE " ON UNIT  53 AT TIME STEP 86, STRESS PERIOD   2
 UBDSV1 SAVING "FLOW FRONT FACE " ON UNIT  53 AT TIME STEP 86, STRESS PERIOD   2
1
              HEAD IN LAYER   1 AT END OF TIME STEP  86 IN STRESS PERIOD    2
  ---------------------------------------------------------------------------

            1           2           3           4           5           6           7           8           9          10
 ........................................................................................................................
   1    9.991       8.882       7.774       6.665       5.556       4.447       3.338       2.229       1.120      1.1092E-02
   2    9.991       8.882       7.774       6.665       5.556       4.447       3.338       2.229       1.120      1.1092E-02
   3    9.991       8.882       7.774       6.665       5.556       4.447       3.338       2.229       1.120      1.1092E-02
   4    9.991       8.882       7.774       6.665       5.556       4.447       3.338       2.229       1.120      1.1092E-02
   5    9.991       8.882       7.774       6.665       5.556       4.447       3.338       2.229       1.120      1.1092E-02
   6    9.991       8.882       7.774       6.665       5.556       4.447       3.338       2.229       1.120      1.1092E-02
   7    9.991       8.882       7.774       6.665       5.556       4.447       3.338       2.229       1.120      1.1092E-02
   8    9.991       8.882       7.774       6.665       5.556       4.447       3.338       2.229       1.120      1.1092E-02
   9    9.991       8.882       7.774       6.665       5.556       4.447       3.338       2.229       1.120      1.1092E-02
  10    9.991       8.882       7.774       6.665       5.556       4.447       3.338       2.229       1.120      1.1092E-02

 HEAD WILL BE SAVED ON UNIT   51 AT END OF TIME STEP   86, STRESS PERIOD    2

 DRAWDOWN WILL BE SAVED ON UNIT   52 AT END OF TIME STEP   86, STRESS PERIOD    2
1
  VOLUMETRIC BUDGET FOR ENTIRE MODEL AT END OF TIME STEP   86, STRESS PERIOD   2
  ------------------------------------------------------------------------------

     CUMULATIVE VOLUMES      L**3       RATES FOR THIS TIME STEP      L**3/T
     ------------------                 ------------------------

           IN:                                      IN:
           ---                                      ---
             STORAGE =       24992.6758               STORAGE =           0.2347
       CONSTANT HEAD =           0.0000         CONSTANT HEAD =           0.0000
               WELLS =           0.0000                 WELLS =           0.0000
     HEAD DEP BOUNDS =       40245.3242       HEAD DEP BOUNDS =         554.2552

            TOTAL IN =       65238.0000              TOTAL IN =         554.4899

          OUT:                                     OUT:
          ----                                     ----
             STORAGE =           0.0000               STORAGE =           0.0000
       CONSTANT HEAD =           0.0000         CONSTANT HEAD =           0.0000
               WELLS =           0.0000                 WELLS =           0.0000
     HEAD DEP BOUNDS =       65256.0078       HEAD DEP BOUNDS =         554.5909

           TOTAL OUT =       65256.0078             TOTAL OUT =         554.5909

            IN - OUT =         -18.0078              IN - OUT =          -0.1010

 PERCENT DISCREPANCY =          -0.03     PERCENT DISCREPANCY =          -0.02






         TIME SUMMARY AT END OF TIME STEP   86 IN STRESS PERIOD    2
                    SECONDS     MINUTES      HOURS       DAYS        YEARS
                    -----------------------------------------------------------
   TIME STEP LENGTH  86400.      1440.0      24.000      1.0000     2.73785E-03
 STRESS PERIOD TIME 7.43040E+06 1.23840E+05  2064.0      86.000     0.23546    
         TOTAL TIME 7.51680E+06 1.25280E+05  2088.0      87.000     0.23819    
1

 SOLVING FOR HEAD 
     1 ITERATIONS FOR TIME STEP  87 IN STRESS PERIOD    2

 OUTPUT CONTROL FOR STRESS PERIOD    2   TIME STEP   87
    SAVE HEAD FOR ALL LAYERS
    SAVE DRAWDOWN FOR ALL LAYERS
    SAVE BUDGET
    PRINT HEAD FOR ALL LAYERS
    PRINT BUDGET
 UBDSV1 SAVING "         STORAGE" ON UNIT  53 AT TIME STEP 87, STRESS PERIOD   2
 UBDSV2 SAVING "   CONSTANT HEAD" ON UNIT  53 AT TIME STEP 87, STRESS PERIOD   2
 UBDSV1 SAVING "FLOW RIGHT FACE " ON UNIT  53 AT TIME STEP 87, STRESS PERIOD   2
 UBDSV1 SAVING "FLOW FRONT FACE " ON UNIT  53 AT TIME STEP 87, STRESS PERIOD   2
1
              HEAD IN LAYER   1 AT END OF TIME STEP  87 IN STRESS PERIOD    2
  ---------------------------------------------------------------------------

            1           2           3           4           5           6           7           8           9          10
 ........................................................................................................................
   1    9.991       8.882       7.774       6.665       5.556       4.447       3.338       2.229       1.120      1.1092E-02
   2    9.991       8.882       7.774       6.665       5.556       4.447       3.338       2.229       1.120      1.1092E-02
   3    9.991       8.882       7.774       6.665       5.556       4.447       3.338       2.229       1.120      1.1092E-02
   4    9.991       8.882       7.774       6.665       5.556       4.447       3.338       2.229       1.120      1.1092E-02
   5    9.991       8.882       7.774       6.665       5.556       4.447       3.338       2.229       1.120      1.1092E-02
   6    9.991       8.882       7.774       6.665       5.556       4.447       3.338       2.229       1.120      1.1092E-02
   7    9.991       8.882       7.774       6.665       5.556       4.447       3.338       2.229       1.120      1.1092E-02
   8    9.991       8.882       7.774       6.665       5.556       4.447       3.338       2.229       1.120      1.1092E-02
   9    9.991       8.882       7.774       6.665       5.556       4.447       3.338       2.229       1.120      1.1091E-02
  10    9.991       8.882       7.774       6.665       5.556       4.447       3.338       2.229       1.120      1.1091E-02

 HEAD WILL BE SAVED ON UNIT   51 AT END OF TIME STEP   87, STRESS PERIOD    2

 DRAWDOWN WILL BE SAVED ON UNIT   52 AT END OF TIME STEP   87, STRESS PERIOD    2
1
  VOLUMETRIC BUDGET FOR ENTIRE MODEL AT END OF TIME STEP   87, STRESS PERIOD   2
  ------------------------------------------------------------------------------

     CUMULATIVE VOLUMES      L**3       RATES FOR THIS TIME STEP      L**3/T
     ------------------                 ------------------------

           IN:                                      IN:
           ---                                      ---
             STORAGE =       24992.8926               STORAGE =           0.2161
       CONSTANT HEAD =           0.0000         CONSTANT HEAD =           0.0000
               WELLS =           0.0000                 WELLS =           0.0000
     HEAD DEP BOUNDS =       40799.5938       HEAD DEP BOUNDS =         554.2681

            TOTAL IN =       65792.4844              TOTAL IN =         554.4843

          OUT:                                     OUT:
          ----                                     ----
             STORAGE =           0.0000               STORAGE =           0.0000
       CONSTANT HEAD =           0.0000         CONSTANT HEAD =           0.0000
               WELLS =           0.0000                 WELLS =           0.0000
     HEAD DEP BOUNDS =       65810.5859       HEAD DEP BOUNDS =         554.5778

           TOTAL OUT =       65810.5859             TOTAL OUT =         554.5778

            IN - OUT =         -18.1016              IN - OUT =      -9.3506E-02

 PERCENT DISCREPANCY =          -0.03     PERCENT DISCREPANCY =          -0.02






         TIME SUMMARY AT END OF TIME STEP   87 IN STRESS PERIOD    2
                    SECONDS     MINUTES      HOURS       DAYS        YEARS
                    -----------------------------------------------------------
   TIME STEP LENGTH  86400.      1440.0      24.000      1.0000     2.73785E-03
 STRESS PERIOD TIME 7.51680E+06 1.25280E+05  2088.0      87.000     0.23819    
         TOTAL TIME 7.60320E+06 1.26720E+05  2112.0      88.000     0.24093    
1

 SOLVING FOR HEAD 
     1 ITERATIONS FOR TIME STEP  88 IN STRESS PERIOD    2

 OUTPUT CONTROL FOR STRESS PERIOD    2   TIME STEP   88
    SAVE HEAD FOR ALL LAYERS
    SAVE DRAWDOWN FOR ALL LAYERS
    SAVE BUDGET
    PRINT HEAD FOR ALL LAYERS
    PRINT BUDGET
 UBDSV1 SAVING "         STORAGE" ON UNIT  53 AT TIME STEP 88, STRESS PERIOD   2
 UBDSV2 SAVING "   CONSTANT HEAD" ON UNIT  53 AT TIME STEP 88, STRESS PERIOD   2
 UBDSV1 SAVING "FLOW RIGHT FACE " ON UNIT  53 AT TIME STEP 88, STRESS PERIOD   2
 UBDSV1 SAVING "FLOW FRONT FACE " ON UNIT  53 AT TIME STEP 88, STRESS PERIOD   2
1
              HEAD IN LAYER   1 AT END OF TIME STEP  88 IN STRESS PERIOD    2
  ---------------------------------------------------------------------------

            1           2           3           4           5           6           7           8           9          10
 ........................................................................................................................
   1    9.991       8.882       7.774       6.665       5.556       4.447       3.338       2.229       1.120      1.1091E-02
   2    9.991       8.882       7.774       6.665       5.556       4.447       3.338       2.229       1.120      1.1091E-02
   3    9.991       8.882       7.774       6.665       5.556       4.447       3.338       2.229       1.120      1.1091E-02
   4    9.991       8.882       7.774       6.665       5.556       4.447       3.338       2.229       1.120      1.1091E-02
   5    9.991       8.882       7.774       6.665       5.556       4.447       3.338       2.229       1.120      1.1091E-02
   6    9.991       8.882       7.774       6.665       5.556       4.447       3.338       2.229       1.120      1.1091E-02
   7    9.991       8.882       7.774       6.665       5.556       4.447       3.338       2.229       1.120      1.1091E-02
   8    9.991       8.882       7.774       6.665       5.556       4.447       3.338       2.229       1.120      1.1091E-02
   9    9.991       8.882       7.774       6.665       5.556       4.447       3.338       2.229       1.120      1.1091E-02
  10    9.991       8.882       7.774       6.665       5.556       4.447       3.338       2.229       1.120      1.1091E-02

 HEAD WILL BE SAVED ON UNIT   51 AT END OF TIME STEP   88, STRESS PERIOD    2

 DRAWDOWN WILL BE SAVED ON UNIT   52 AT END OF TIME STEP   88, STRESS PERIOD    2
1
  VOLUMETRIC BUDGET FOR ENTIRE MODEL AT END OF TIME STEP   88, STRESS PERIOD   2
  ------------------------------------------------------------------------------

     CUMULATIVE VOLUMES      L**3       RATES FOR THIS TIME STEP      L**3/T
     ------------------                 ------------------------

           IN:                                      IN:
           ---                                      ---
             STORAGE =       24993.0918               STORAGE =           0.1984
       CONSTANT HEAD =           0.0000         CONSTANT HEAD =           0.0000
               WELLS =           0.0000                 WELLS =           0.0000
     HEAD DEP BOUNDS =       41353.8750       HEAD DEP BOUNDS =         554.2799

            TOTAL IN =       66346.9688              TOTAL IN =         554.4783

          OUT:                                     OUT:
          ----                                     ----
             STORAGE =           0.0000               STORAGE =           0.0000
       CONSTANT HEAD =           0.0000         CONSTANT HEAD =           0.0000
               WELLS =           0.0000                 WELLS =           0.0000
     HEAD DEP BOUNDS =       66365.1484       HEAD DEP BOUNDS =         554.5656

           TOTAL OUT =       66365.1484             TOTAL OUT =         554.5656

            IN - OUT =         -18.1797              IN - OUT =      -8.7280E-02

 PERCENT DISCREPANCY =          -0.03     PERCENT DISCREPANCY =          -0.02






         TIME SUMMARY AT END OF TIME STEP   88 IN STRESS PERIOD    2
                    SECONDS     MINUTES      HOURS       DAYS        YEARS
                    -----------------------------------------------------------
   TIME STEP LENGTH  86400.      1440.0      24.000      1.0000     2.73785E-03
 STRESS PERIOD TIME 7.60320E+06 1.26720E+05  2112.0      88.000     0.24093    
         TOTAL TIME 7.68960E+06 1.28160E+05  2136.0      89.000     0.24367    
1

 SOLVING FOR HEAD 
     1 ITERATIONS FOR TIME STEP  89 IN STRESS PERIOD    2

 OUTPUT CONTROL FOR STRESS PERIOD    2   TIME STEP   89
    SAVE HEAD FOR ALL LAYERS
    SAVE DRAWDOWN FOR ALL LAYERS
    SAVE BUDGET
    PRINT HEAD FOR ALL LAYERS
    PRINT BUDGET
 UBDSV1 SAVING "         STORAGE" ON UNIT  53 AT TIME STEP 89, STRESS PERIOD   2
 UBDSV2 SAVING "   CONSTANT HEAD" ON UNIT  53 AT TIME STEP 89, STRESS PERIOD   2
 UBDSV1 SAVING "FLOW RIGHT FACE " ON UNIT  53 AT TIME STEP 89, STRESS PERIOD   2
 UBDSV1 SAVING "FLOW FRONT FACE " ON UNIT  53 AT TIME STEP 89, STRESS PERIOD   2
1
              HEAD IN LAYER   1 AT END OF TIME STEP  89 IN STRESS PERIOD    2
  ---------------------------------------------------------------------------

            1           2           3           4           5           6           7           8           9          10
 ........................................................................................................................
   1    9.991       8.882       7.774       6.665       5.556       4.447       3.338       2.229       1.120      1.1091E-02
   2    9.991       8.882       7.774       6.665       5.556       4.447       3.338       2.229       1.120      1.1091E-02
   3    9.991       8.882       7.774       6.665       5.556       4.447       3.338       2.229       1.120      1.1091E-02
   4    9.991       8.882       7.774       6.665       5.556       4.447       3.338       2.229       1.120      1.1091E-02
   5    9.991       8.882       7.774       6.665       5.556       4.447       3.338       2.229       1.120      1.1091E-02
   6    9.991       8.882       7.774       6.665       5.556       4.447       3.338       2.229       1.120      1.1091E-02
   7    9.991       8.882       7.774       6.665       5.556       4.447       3.338       2.229       1.120      1.1091E-02
   8    9.991       8.882       7.774       6.665       5.556       4.447       3.338       2.229       1.120      1.1091E-02
   9    9.991       8.882       7.774       6.665       5.556       4.447       3.338       2.229       1.120      1.1091E-02
  10    9.991       8.882       7.774       6.665       5.556       4.447       3.338       2.229       1.120      1.1091E-02

 HEAD WILL BE SAVED ON UNIT   51 AT END OF TIME STEP   89, STRESS PERIOD    2

 DRAWDOWN WILL BE SAVED ON UNIT   52 AT END OF TIME STEP   89, STRESS PERIOD    2
1
  VOLUMETRIC BUDGET FOR ENTIRE MODEL AT END OF TIME STEP   89, STRESS PERIOD   2
  ------------------------------------------------------------------------------

     CUMULATIVE VOLUMES      L**3       RATES FOR THIS TIME STEP      L**3/T
     ------------------                 ------------------------

           IN:                                      IN:
           ---                                      ---
             STORAGE =       24993.2734               STORAGE =           0.1825
       CONSTANT HEAD =           0.0000         CONSTANT HEAD =           0.0000
               WELLS =           0.0000                 WELLS =           0.0000
     HEAD DEP BOUNDS =       41908.1641       HEAD DEP BOUNDS =         554.2908

            TOTAL IN =       66901.4375              TOTAL IN =         554.4733

          OUT:                                     OUT:
          ----                                     ----
             STORAGE =           0.0000               STORAGE =           0.0000
       CONSTANT HEAD =           0.0000         CONSTANT HEAD =           0.0000
               WELLS =           0.0000                 WELLS =           0.0000
     HEAD DEP BOUNDS =       66919.7031       HEAD DEP BOUNDS =         554.5544

           TOTAL OUT =       66919.7031             TOTAL OUT =         554.5544

            IN - OUT =         -18.2656              IN - OUT =      -8.1177E-02

 PERCENT DISCREPANCY =          -0.03     PERCENT DISCREPANCY =          -0.01






         TIME SUMMARY AT END OF TIME STEP   89 IN STRESS PERIOD    2
                    SECONDS     MINUTES      HOURS       DAYS        YEARS
                    -----------------------------------------------------------
   TIME STEP LENGTH  86400.      1440.0      24.000      1.0000     2.73785E-03
 STRESS PERIOD TIME 7.68960E+06 1.28160E+05  2136.0      89.000     0.24367    
         TOTAL TIME 7.77600E+06 1.29600E+05  2160.0      90.000     0.24641    
1

 SOLVING FOR HEAD 
     1 ITERATIONS FOR TIME STEP  90 IN STRESS PERIOD    2

 OUTPUT CONTROL FOR STRESS PERIOD    2   TIME STEP   90
    SAVE HEAD FOR ALL LAYERS
    SAVE DRAWDOWN FOR ALL LAYERS
    SAVE BUDGET
    PRINT HEAD FOR ALL LAYERS
    PRINT BUDGET
 UBDSV1 SAVING "         STORAGE" ON UNIT  53 AT TIME STEP 90, STRESS PERIOD   2
 UBDSV2 SAVING "   CONSTANT HEAD" ON UNIT  53 AT TIME STEP 90, STRESS PERIOD   2
 UBDSV1 SAVING "FLOW RIGHT FACE " ON UNIT  53 AT TIME STEP 90, STRESS PERIOD   2
 UBDSV1 SAVING "FLOW FRONT FACE " ON UNIT  53 AT TIME STEP 90, STRESS PERIOD   2
1
              HEAD IN LAYER   1 AT END OF TIME STEP  90 IN STRESS PERIOD    2
  ---------------------------------------------------------------------------

            1           2           3           4           5           6           7           8           9          10
 ........................................................................................................................
   1    9.991       8.882       7.773       6.665       5.556       4.447       3.338       2.229       1.120      1.1091E-02
   2    9.991       8.882       7.773       6.665       5.556       4.447       3.338       2.229       1.120      1.1091E-02
   3    9.991       8.882       7.773       6.665       5.556       4.447       3.338       2.229       1.120      1.1091E-02
   4    9.991       8.882       7.773       6.665       5.556       4.447       3.338       2.229       1.120      1.1091E-02
   5    9.991       8.882       7.773       6.665       5.556       4.447       3.338       2.229       1.120      1.1091E-02
   6    9.991       8.882       7.773       6.665       5.556       4.447       3.338       2.229       1.120      1.1091E-02
   7    9.991       8.882       7.773       6.665       5.556       4.447       3.338       2.229       1.120      1.1091E-02
   8    9.991       8.882       7.773       6.665       5.556       4.447       3.338       2.229       1.120      1.1091E-02
   9    9.991       8.882       7.773       6.665       5.556       4.447       3.338       2.229       1.120      1.1091E-02
  10    9.991       8.882       7.773       6.665       5.556       4.447       3.338       2.229       1.120      1.1091E-02

 HEAD WILL BE SAVED ON UNIT   51 AT END OF TIME STEP   90, STRESS PERIOD    2

 DRAWDOWN WILL BE SAVED ON UNIT   52 AT END OF TIME STEP   90, STRESS PERIOD    2
1
  VOLUMETRIC BUDGET FOR ENTIRE MODEL AT END OF TIME STEP   90, STRESS PERIOD   2
  ------------------------------------------------------------------------------

     CUMULATIVE VOLUMES      L**3       RATES FOR THIS TIME STEP      L**3/T
     ------------------                 ------------------------

           IN:                                      IN:
           ---                                      ---
             STORAGE =       24993.4414               STORAGE =           0.1679
       CONSTANT HEAD =           0.0000         CONSTANT HEAD =           0.0000
               WELLS =           0.0000                 WELLS =           0.0000
     HEAD DEP BOUNDS =       42462.4648       HEAD DEP BOUNDS =         554.3007

            TOTAL IN =       67455.9062              TOTAL IN =         554.4687

          OUT:                                     OUT:
          ----                                     ----
             STORAGE =           0.0000               STORAGE =           0.0000
       CONSTANT HEAD =           0.0000         CONSTANT HEAD =           0.0000
               WELLS =           0.0000                 WELLS =           0.0000
     HEAD DEP BOUNDS =       67474.2500       HEAD DEP BOUNDS =         554.5442

           TOTAL OUT =       67474.2500             TOTAL OUT =         554.5442

            IN - OUT =         -18.3438              IN - OUT =      -7.5500E-02

 PERCENT DISCREPANCY =          -0.03     PERCENT DISCREPANCY =          -0.01






         TIME SUMMARY AT END OF TIME STEP   90 IN STRESS PERIOD    2
                    SECONDS     MINUTES      HOURS       DAYS        YEARS
                    -----------------------------------------------------------
   TIME STEP LENGTH  86400.      1440.0      24.000      1.0000     2.73785E-03
 STRESS PERIOD TIME 7.77600E+06 1.29600E+05  2160.0      90.000     0.24641    
         TOTAL TIME 7.86240E+06 1.31040E+05  2184.0      91.000     0.24914    
1

 SOLVING FOR HEAD 
     1 ITERATIONS FOR TIME STEP  91 IN STRESS PERIOD    2

 OUTPUT CONTROL FOR STRESS PERIOD    2   TIME STEP   91
    SAVE HEAD FOR ALL LAYERS
    SAVE DRAWDOWN FOR ALL LAYERS
    SAVE BUDGET
    PRINT HEAD FOR ALL LAYERS
    PRINT BUDGET
 UBDSV1 SAVING "         STORAGE" ON UNIT  53 AT TIME STEP 91, STRESS PERIOD   2
 UBDSV2 SAVING "   CONSTANT HEAD" ON UNIT  53 AT TIME STEP 91, STRESS PERIOD   2
 UBDSV1 SAVING "FLOW RIGHT FACE " ON UNIT  53 AT TIME STEP 91, STRESS PERIOD   2
 UBDSV1 SAVING "FLOW FRONT FACE " ON UNIT  53 AT TIME STEP 91, STRESS PERIOD   2
1
              HEAD IN LAYER   1 AT END OF TIME STEP  91 IN STRESS PERIOD    2
  ---------------------------------------------------------------------------

            1           2           3           4           5           6           7           8           9          10
 ........................................................................................................................
   1    9.991       8.882       7.773       6.665       5.556       4.447       3.338       2.229       1.120      1.1091E-02
   2    9.991       8.882       7.773       6.665       5.556       4.447       3.338       2.229       1.120      1.1091E-02
   3    9.991       8.882       7.773       6.665       5.556       4.447       3.338       2.229       1.120      1.1091E-02
   4    9.991       8.882       7.773       6.665       5.556       4.447       3.338       2.229       1.120      1.1091E-02
   5    9.991       8.882       7.773       6.665       5.556       4.447       3.338       2.229       1.120      1.1091E-02
   6    9.991       8.882       7.773       6.665       5.556       4.447       3.338       2.229       1.120      1.1091E-02
   7    9.991       8.882       7.773       6.665       5.556       4.447       3.338       2.229       1.120      1.1091E-02
   8    9.991       8.882       7.773       6.665       5.556       4.447       3.338       2.229       1.120      1.1091E-02
   9    9.991       8.882       7.773       6.665       5.556       4.447       3.338       2.229       1.120      1.1091E-02
  10    9.991       8.882       7.773       6.665       5.556       4.447       3.338       2.229       1.120      1.1091E-02

 HEAD WILL BE SAVED ON UNIT   51 AT END OF TIME STEP   91, STRESS PERIOD    2

 DRAWDOWN WILL BE SAVED ON UNIT   52 AT END OF TIME STEP   91, STRESS PERIOD    2
1
  VOLUMETRIC BUDGET FOR ENTIRE MODEL AT END OF TIME STEP   91, STRESS PERIOD   2
  ------------------------------------------------------------------------------

     CUMULATIVE VOLUMES      L**3       RATES FOR THIS TIME STEP      L**3/T
     ------------------                 ------------------------

           IN:                                      IN:
           ---                                      ---
             STORAGE =       24993.5957               STORAGE =           0.1543
       CONSTANT HEAD =           0.0000         CONSTANT HEAD =           0.0000
               WELLS =           0.0000                 WELLS =           0.0000
     HEAD DEP BOUNDS =       43016.7734       HEAD DEP BOUNDS =         554.3099

            TOTAL IN =       68010.3672              TOTAL IN =         554.4642

          OUT:                                     OUT:
          ----                                     ----
             STORAGE =           0.0000               STORAGE =           0.0000
       CONSTANT HEAD =           0.0000         CONSTANT HEAD =           0.0000
               WELLS =           0.0000                 WELLS =           0.0000
     HEAD DEP BOUNDS =       68028.7812       HEAD DEP BOUNDS =         554.5347

           TOTAL OUT =       68028.7812             TOTAL OUT =         554.5347

            IN - OUT =         -18.4141              IN - OUT =      -7.0496E-02

 PERCENT DISCREPANCY =          -0.03     PERCENT DISCREPANCY =          -0.01






         TIME SUMMARY AT END OF TIME STEP   91 IN STRESS PERIOD    2
                    SECONDS     MINUTES      HOURS       DAYS        YEARS
                    -----------------------------------------------------------
   TIME STEP LENGTH  86400.      1440.0      24.000      1.0000     2.73785E-03
 STRESS PERIOD TIME 7.86240E+06 1.31040E+05  2184.0      91.000     0.24914    
         TOTAL TIME 7.94880E+06 1.32480E+05  2208.0      92.000     0.25188    
1

 SOLVING FOR HEAD 
     1 ITERATIONS FOR TIME STEP  92 IN STRESS PERIOD    2

 OUTPUT CONTROL FOR STRESS PERIOD    2   TIME STEP   92
    SAVE HEAD FOR ALL LAYERS
    SAVE DRAWDOWN FOR ALL LAYERS
    SAVE BUDGET
    PRINT HEAD FOR ALL LAYERS
    PRINT BUDGET
 UBDSV1 SAVING "         STORAGE" ON UNIT  53 AT TIME STEP 92, STRESS PERIOD   2
 UBDSV2 SAVING "   CONSTANT HEAD" ON UNIT  53 AT TIME STEP 92, STRESS PERIOD   2
 UBDSV1 SAVING "FLOW RIGHT FACE " ON UNIT  53 AT TIME STEP 92, STRESS PERIOD   2
 UBDSV1 SAVING "FLOW FRONT FACE " ON UNIT  53 AT TIME STEP 92, STRESS PERIOD   2
1
              HEAD IN LAYER   1 AT END OF TIME STEP  92 IN STRESS PERIOD    2
  ---------------------------------------------------------------------------

            1           2           3           4           5           6           7           8           9          10
 ........................................................................................................................
   1    9.991       8.882       7.773       6.665       5.556       4.447       3.338       2.229       1.120      1.1091E-02
   2    9.991       8.882       7.773       6.665       5.556       4.447       3.338       2.229       1.120      1.1091E-02
   3    9.991       8.882       7.773       6.665       5.556       4.447       3.338       2.229       1.120      1.1091E-02
   4    9.991       8.882       7.773       6.665       5.556       4.447       3.338       2.229       1.120      1.1091E-02
   5    9.991       8.882       7.773       6.665       5.556       4.447       3.338       2.229       1.120      1.1091E-02
   6    9.991       8.882       7.773       6.665       5.556       4.447       3.338       2.229       1.120      1.1091E-02
   7    9.991       8.882       7.773       6.665       5.556       4.447       3.338       2.229       1.120      1.1091E-02
   8    9.991       8.882       7.773       6.665       5.556       4.447       3.338       2.229       1.120      1.1091E-02
   9    9.991       8.882       7.773       6.665       5.556       4.447       3.338       2.229       1.120      1.1090E-02
  10    9.991       8.882       7.773       6.665       5.556       4.447       3.338       2.229       1.120      1.1090E-02

 HEAD WILL BE SAVED ON UNIT   51 AT END OF TIME STEP   92, STRESS PERIOD    2

 DRAWDOWN WILL BE SAVED ON UNIT   52 AT END OF TIME STEP   92, STRESS PERIOD    2
1
  VOLUMETRIC BUDGET FOR ENTIRE MODEL AT END OF TIME STEP   92, STRESS PERIOD   2
  ------------------------------------------------------------------------------

     CUMULATIVE VOLUMES      L**3       RATES FOR THIS TIME STEP      L**3/T
     ------------------                 ------------------------

           IN:                                      IN:
           ---                                      ---
             STORAGE =       24993.7383               STORAGE =           0.1421
       CONSTANT HEAD =           0.0000         CONSTANT HEAD =           0.0000
               WELLS =           0.0000                 WELLS =           0.0000
     HEAD DEP BOUNDS =       43571.0938       HEAD DEP BOUNDS =         554.3184

            TOTAL IN =       68564.8281              TOTAL IN =         554.4604

          OUT:                                     OUT:
          ----                                     ----
             STORAGE =           0.0000               STORAGE =           0.0000
       CONSTANT HEAD =           0.0000         CONSTANT HEAD =           0.0000
               WELLS =           0.0000                 WELLS =           0.0000
     HEAD DEP BOUNDS =       68583.3047       HEAD DEP BOUNDS =         554.5260

           TOTAL OUT =       68583.3047             TOTAL OUT =         554.5260

            IN - OUT =         -18.4766              IN - OUT =      -6.5552E-02

 PERCENT DISCREPANCY =          -0.03     PERCENT DISCREPANCY =          -0.01






         TIME SUMMARY AT END OF TIME STEP   92 IN STRESS PERIOD    2
                    SECONDS     MINUTES      HOURS       DAYS        YEARS
                    -----------------------------------------------------------
   TIME STEP LENGTH  86400.      1440.0      24.000      1.0000     2.73785E-03
 STRESS PERIOD TIME 7.94880E+06 1.32480E+05  2208.0      92.000     0.25188    
         TOTAL TIME 8.03520E+06 1.33920E+05  2232.0      93.000     0.25462    
1

 SOLVING FOR HEAD 
     1 ITERATIONS FOR TIME STEP  93 IN STRESS PERIOD    2

 OUTPUT CONTROL FOR STRESS PERIOD    2   TIME STEP   93
    SAVE HEAD FOR ALL LAYERS
    SAVE DRAWDOWN FOR ALL LAYERS
    SAVE BUDGET
    PRINT HEAD FOR ALL LAYERS
    PRINT BUDGET
 UBDSV1 SAVING "         STORAGE" ON UNIT  53 AT TIME STEP 93, STRESS PERIOD   2
 UBDSV2 SAVING "   CONSTANT HEAD" ON UNIT  53 AT TIME STEP 93, STRESS PERIOD   2
 UBDSV1 SAVING "FLOW RIGHT FACE " ON UNIT  53 AT TIME STEP 93, STRESS PERIOD   2
 UBDSV1 SAVING "FLOW FRONT FACE " ON UNIT  53 AT TIME STEP 93, STRESS PERIOD   2
1
              HEAD IN LAYER   1 AT END OF TIME STEP  93 IN STRESS PERIOD    2
  ---------------------------------------------------------------------------

            1           2           3           4           5           6           7           8           9          10
 ........................................................................................................................
   1    9.991       8.882       7.773       6.665       5.556       4.447       3.338       2.229       1.120      1.1090E-02
   2    9.991       8.882       7.773       6.665       5.556       4.447       3.338       2.229       1.120      1.1090E-02
   3    9.991       8.882       7.773       6.665       5.556       4.447       3.338       2.229       1.120      1.1090E-02
   4    9.991       8.882       7.773       6.665       5.556       4.447       3.338       2.229       1.120      1.1090E-02
   5    9.991       8.882       7.773       6.665       5.556       4.447       3.338       2.229       1.120      1.1090E-02
   6    9.991       8.882       7.773       6.665       5.556       4.447       3.338       2.229       1.120      1.1090E-02
   7    9.991       8.882       7.773       6.665       5.556       4.447       3.338       2.229       1.120      1.1090E-02
   8    9.991       8.882       7.773       6.665       5.556       4.447       3.338       2.229       1.120      1.1090E-02
   9    9.991       8.882       7.773       6.665       5.556       4.447       3.338       2.229       1.120      1.1090E-02
  10    9.991       8.882       7.773       6.665       5.556       4.447       3.338       2.229       1.120      1.1090E-02

 HEAD WILL BE SAVED ON UNIT   51 AT END OF TIME STEP   93, STRESS PERIOD    2

 DRAWDOWN WILL BE SAVED ON UNIT   52 AT END OF TIME STEP   93, STRESS PERIOD    2
1
  VOLUMETRIC BUDGET FOR ENTIRE MODEL AT END OF TIME STEP   93, STRESS PERIOD   2
  ------------------------------------------------------------------------------

     CUMULATIVE VOLUMES      L**3       RATES FOR THIS TIME STEP      L**3/T
     ------------------                 ------------------------

           IN:                                      IN:
           ---                                      ---
             STORAGE =       24993.8691               STORAGE =           0.1312
       CONSTANT HEAD =           0.0000         CONSTANT HEAD =           0.0000
               WELLS =           0.0000                 WELLS =           0.0000
     HEAD DEP BOUNDS =       44125.4180       HEAD DEP BOUNDS =         554.3261

            TOTAL IN =       69119.2891              TOTAL IN =         554.4573

          OUT:                                     OUT:
          ----                                     ----
             STORAGE =           0.0000               STORAGE =           0.0000
       CONSTANT HEAD =           0.0000         CONSTANT HEAD =           0.0000
               WELLS =           0.0000                 WELLS =           0.0000
     HEAD DEP BOUNDS =       69137.8203       HEAD DEP BOUNDS =         554.5180

           TOTAL OUT =       69137.8203             TOTAL OUT =         554.5180

            IN - OUT =         -18.5312              IN - OUT =      -6.0730E-02

 PERCENT DISCREPANCY =          -0.03     PERCENT DISCREPANCY =          -0.01






         TIME SUMMARY AT END OF TIME STEP   93 IN STRESS PERIOD    2
                    SECONDS     MINUTES      HOURS       DAYS        YEARS
                    -----------------------------------------------------------
   TIME STEP LENGTH  86400.      1440.0      24.000      1.0000     2.73785E-03
 STRESS PERIOD TIME 8.03520E+06 1.33920E+05  2232.0      93.000     0.25462    
         TOTAL TIME 8.12160E+06 1.35360E+05  2256.0      94.000     0.25736    
1

 SOLVING FOR HEAD 
     1 ITERATIONS FOR TIME STEP  94 IN STRESS PERIOD    2

 OUTPUT CONTROL FOR STRESS PERIOD    2   TIME STEP   94
    SAVE HEAD FOR ALL LAYERS
    SAVE DRAWDOWN FOR ALL LAYERS
    SAVE BUDGET
    PRINT HEAD FOR ALL LAYERS
    PRINT BUDGET
 UBDSV1 SAVING "         STORAGE" ON UNIT  53 AT TIME STEP 94, STRESS PERIOD   2
 UBDSV2 SAVING "   CONSTANT HEAD" ON UNIT  53 AT TIME STEP 94, STRESS PERIOD   2
 UBDSV1 SAVING "FLOW RIGHT FACE " ON UNIT  53 AT TIME STEP 94, STRESS PERIOD   2
 UBDSV1 SAVING "FLOW FRONT FACE " ON UNIT  53 AT TIME STEP 94, STRESS PERIOD   2
1
              HEAD IN LAYER   1 AT END OF TIME STEP  94 IN STRESS PERIOD    2
  ---------------------------------------------------------------------------

            1           2           3           4           5           6           7           8           9          10
 ........................................................................................................................
   1    9.991       8.882       7.773       6.665       5.556       4.447       3.338       2.229       1.120      1.1090E-02
   2    9.991       8.882       7.773       6.665       5.556       4.447       3.338       2.229       1.120      1.1090E-02
   3    9.991       8.882       7.773       6.665       5.556       4.447       3.338       2.229       1.120      1.1090E-02
   4    9.991       8.882       7.773       6.665       5.556       4.447       3.338       2.229       1.120      1.1090E-02
   5    9.991       8.882       7.773       6.665       5.556       4.447       3.338       2.229       1.120      1.1090E-02
   6    9.991       8.882       7.773       6.665       5.556       4.447       3.338       2.229       1.120      1.1090E-02
   7    9.991       8.882       7.773       6.665       5.556       4.447       3.338       2.229       1.120      1.1090E-02
   8    9.991       8.882       7.773       6.665       5.556       4.447       3.338       2.229       1.120      1.1090E-02
   9    9.991       8.882       7.773       6.665       5.556       4.447       3.338       2.229       1.120      1.1090E-02
  10    9.991       8.882       7.773       6.665       5.556       4.447       3.338       2.229       1.120      1.1090E-02

 HEAD WILL BE SAVED ON UNIT   51 AT END OF TIME STEP   94, STRESS PERIOD    2

 DRAWDOWN WILL BE SAVED ON UNIT   52 AT END OF TIME STEP   94, STRESS PERIOD    2
1
  VOLUMETRIC BUDGET FOR ENTIRE MODEL AT END OF TIME STEP   94, STRESS PERIOD   2
  ------------------------------------------------------------------------------

     CUMULATIVE VOLUMES      L**3       RATES FOR THIS TIME STEP      L**3/T
     ------------------                 ------------------------

           IN:                                      IN:
           ---                                      ---
             STORAGE =       24993.9902               STORAGE =           0.1203
       CONSTANT HEAD =           0.0000         CONSTANT HEAD =           0.0000
               WELLS =           0.0000                 WELLS =           0.0000
     HEAD DEP BOUNDS =       44679.7500       HEAD DEP BOUNDS =         554.3333

            TOTAL IN =       69673.7422              TOTAL IN =         554.4536

          OUT:                                     OUT:
          ----                                     ----
             STORAGE =           0.0000               STORAGE =           0.0000
       CONSTANT HEAD =           0.0000         CONSTANT HEAD =           0.0000
               WELLS =           0.0000                 WELLS =           0.0000
     HEAD DEP BOUNDS =       69692.3281       HEAD DEP BOUNDS =         554.5107

           TOTAL OUT =       69692.3281             TOTAL OUT =         554.5107

            IN - OUT =         -18.5859              IN - OUT =      -5.7129E-02

 PERCENT DISCREPANCY =          -0.03     PERCENT DISCREPANCY =          -0.01






         TIME SUMMARY AT END OF TIME STEP   94 IN STRESS PERIOD    2
                    SECONDS     MINUTES      HOURS       DAYS        YEARS
                    -----------------------------------------------------------
   TIME STEP LENGTH  86400.      1440.0      24.000      1.0000     2.73785E-03
 STRESS PERIOD TIME 8.12160E+06 1.35360E+05  2256.0      94.000     0.25736    
         TOTAL TIME 8.20800E+06 1.36800E+05  2280.0      95.000     0.26010    
1

 SOLVING FOR HEAD 
     1 ITERATIONS FOR TIME STEP  95 IN STRESS PERIOD    2

 OUTPUT CONTROL FOR STRESS PERIOD    2   TIME STEP   95
    SAVE HEAD FOR ALL LAYERS
    SAVE DRAWDOWN FOR ALL LAYERS
    SAVE BUDGET
    PRINT HEAD FOR ALL LAYERS
    PRINT BUDGET
 UBDSV1 SAVING "         STORAGE" ON UNIT  53 AT TIME STEP 95, STRESS PERIOD   2
 UBDSV2 SAVING "   CONSTANT HEAD" ON UNIT  53 AT TIME STEP 95, STRESS PERIOD   2
 UBDSV1 SAVING "FLOW RIGHT FACE " ON UNIT  53 AT TIME STEP 95, STRESS PERIOD   2
 UBDSV1 SAVING "FLOW FRONT FACE " ON UNIT  53 AT TIME STEP 95, STRESS PERIOD   2
1
              HEAD IN LAYER   1 AT END OF TIME STEP  95 IN STRESS PERIOD    2
  ---------------------------------------------------------------------------

            1           2           3           4           5           6           7           8           9          10
 ........................................................................................................................
   1    9.991       8.882       7.773       6.665       5.556       4.447       3.338       2.229       1.120      1.1090E-02
   2    9.991       8.882       7.773       6.665       5.556       4.447       3.338       2.229       1.120      1.1090E-02
   3    9.991       8.882       7.773       6.665       5.556       4.447       3.338       2.229       1.120      1.1090E-02
   4    9.991       8.882       7.773       6.665       5.556       4.447       3.338       2.229       1.120      1.1090E-02
   5    9.991       8.882       7.773       6.665       5.556       4.447       3.338       2.229       1.120      1.1090E-02
   6    9.991       8.882       7.773       6.665       5.556       4.447       3.338       2.229       1.120      1.1090E-02
   7    9.991       8.882       7.773       6.665       5.556       4.447       3.338       2.229       1.120      1.1090E-02
   8    9.991       8.882       7.773       6.665       5.556       4.447       3.338       2.229       1.120      1.1090E-02
   9    9.991       8.882       7.773       6.665       5.556       4.447       3.338       2.229       1.120      1.1090E-02
  10    9.991       8.882       7.773       6.665       5.556       4.447       3.338       2.229       1.120      1.1090E-02

 HEAD WILL BE SAVED ON UNIT   51 AT END OF TIME STEP   95, STRESS PERIOD    2

 DRAWDOWN WILL BE SAVED ON UNIT   52 AT END OF TIME STEP   95, STRESS PERIOD    2
1
  VOLUMETRIC BUDGET FOR ENTIRE MODEL AT END OF TIME STEP   95, STRESS PERIOD   2
  ------------------------------------------------------------------------------

     CUMULATIVE VOLUMES      L**3       RATES FOR THIS TIME STEP      L**3/T
     ------------------                 ------------------------

           IN:                                      IN:
           ---                                      ---
             STORAGE =       24994.1016               STORAGE =           0.1106
       CONSTANT HEAD =           0.0000         CONSTANT HEAD =           0.0000
               WELLS =           0.0000                 WELLS =           0.0000
     HEAD DEP BOUNDS =       45234.0898       HEAD DEP BOUNDS =         554.3398

            TOTAL IN =       70228.1875              TOTAL IN =         554.4504

          OUT:                                     OUT:
          ----                                     ----
             STORAGE =           0.0000               STORAGE =           0.0000
       CONSTANT HEAD =           0.0000         CONSTANT HEAD =           0.0000
               WELLS =           0.0000                 WELLS =           0.0000
     HEAD DEP BOUNDS =       70246.8281       HEAD DEP BOUNDS =         554.5039

           TOTAL OUT =       70246.8281             TOTAL OUT =         554.5039

            IN - OUT =         -18.6406              IN - OUT =      -5.3528E-02

 PERCENT DISCREPANCY =          -0.03     PERCENT DISCREPANCY =          -0.01






         TIME SUMMARY AT END OF TIME STEP   95 IN STRESS PERIOD    2
                    SECONDS     MINUTES      HOURS       DAYS        YEARS
                    -----------------------------------------------------------
   TIME STEP LENGTH  86400.      1440.0      24.000      1.0000     2.73785E-03
 STRESS PERIOD TIME 8.20800E+06 1.36800E+05  2280.0      95.000     0.26010    
         TOTAL TIME 8.29440E+06 1.38240E+05  2304.0      96.000     0.26283    
1

 SOLVING FOR HEAD 
     1 ITERATIONS FOR TIME STEP  96 IN STRESS PERIOD    2

 OUTPUT CONTROL FOR STRESS PERIOD    2   TIME STEP   96
    SAVE HEAD FOR ALL LAYERS
    SAVE DRAWDOWN FOR ALL LAYERS
    SAVE BUDGET
    PRINT HEAD FOR ALL LAYERS
    PRINT BUDGET
 UBDSV1 SAVING "         STORAGE" ON UNIT  53 AT TIME STEP 96, STRESS PERIOD   2
 UBDSV2 SAVING "   CONSTANT HEAD" ON UNIT  53 AT TIME STEP 96, STRESS PERIOD   2
 UBDSV1 SAVING "FLOW RIGHT FACE " ON UNIT  53 AT TIME STEP 96, STRESS PERIOD   2
 UBDSV1 SAVING "FLOW FRONT FACE " ON UNIT  53 AT TIME STEP 96, STRESS PERIOD   2
1
              HEAD IN LAYER   1 AT END OF TIME STEP  96 IN STRESS PERIOD    2
  ---------------------------------------------------------------------------

            1           2           3           4           5           6           7           8           9          10
 ........................................................................................................................
   1    9.991       8.882       7.773       6.665       5.556       4.447       3.338       2.229       1.120      1.1090E-02
   2    9.991       8.882       7.773       6.665       5.556       4.447       3.338       2.229       1.120      1.1090E-02
   3    9.991       8.882       7.773       6.665       5.556       4.447       3.338       2.229       1.120      1.1090E-02
   4    9.991       8.882       7.773       6.665       5.556       4.447       3.338       2.229       1.120      1.1090E-02
   5    9.991       8.882       7.773       6.665       5.556       4.447       3.338       2.229       1.120      1.1090E-02
   6    9.991       8.882       7.773       6.665       5.556       4.447       3.338       2.229       1.120      1.1090E-02
   7    9.991       8.882       7.773       6.665       5.556       4.447       3.338       2.229       1.120      1.1090E-02
   8    9.991       8.882       7.773       6.665       5.556       4.447       3.338       2.229       1.120      1.1090E-02
   9    9.991       8.882       7.773       6.665       5.556       4.447       3.338       2.229       1.120      1.1090E-02
  10    9.991       8.882       7.773       6.665       5.556       4.447       3.338       2.229       1.120      1.1090E-02

 HEAD WILL BE SAVED ON UNIT   51 AT END OF TIME STEP   96, STRESS PERIOD    2

 DRAWDOWN WILL BE SAVED ON UNIT   52 AT END OF TIME STEP   96, STRESS PERIOD    2
1
  VOLUMETRIC BUDGET FOR ENTIRE MODEL AT END OF TIME STEP   96, STRESS PERIOD   2
  ------------------------------------------------------------------------------

     CUMULATIVE VOLUMES      L**3       RATES FOR THIS TIME STEP      L**3/T
     ------------------                 ------------------------

           IN:                                      IN:
           ---                                      ---
             STORAGE =       24994.2031               STORAGE =           0.1017
       CONSTANT HEAD =           0.0000         CONSTANT HEAD =           0.0000
               WELLS =           0.0000                 WELLS =           0.0000
     HEAD DEP BOUNDS =       45788.4375       HEAD DEP BOUNDS =         554.3459

            TOTAL IN =       70782.6406              TOTAL IN =         554.4476

          OUT:                                     OUT:
          ----                                     ----
             STORAGE =           0.0000               STORAGE =           0.0000
       CONSTANT HEAD =           0.0000         CONSTANT HEAD =           0.0000
               WELLS =           0.0000                 WELLS =           0.0000
     HEAD DEP BOUNDS =       70801.3281       HEAD DEP BOUNDS =         554.4977

           TOTAL OUT =       70801.3281             TOTAL OUT =         554.4977

            IN - OUT =         -18.6875              IN - OUT =      -5.0110E-02

 PERCENT DISCREPANCY =          -0.03     PERCENT DISCREPANCY =          -0.01






         TIME SUMMARY AT END OF TIME STEP   96 IN STRESS PERIOD    2
                    SECONDS     MINUTES      HOURS       DAYS        YEARS
                    -----------------------------------------------------------
   TIME STEP LENGTH  86400.      1440.0      24.000      1.0000     2.73785E-03
 STRESS PERIOD TIME 8.29440E+06 1.38240E+05  2304.0      96.000     0.26283    
         TOTAL TIME 8.38080E+06 1.39680E+05  2328.0      97.000     0.26557    
1

 SOLVING FOR HEAD 
     1 ITERATIONS FOR TIME STEP  97 IN STRESS PERIOD    2

 OUTPUT CONTROL FOR STRESS PERIOD    2   TIME STEP   97
    SAVE HEAD FOR ALL LAYERS
    SAVE DRAWDOWN FOR ALL LAYERS
    SAVE BUDGET
    PRINT HEAD FOR ALL LAYERS
    PRINT BUDGET
 UBDSV1 SAVING "         STORAGE" ON UNIT  53 AT TIME STEP 97, STRESS PERIOD   2
 UBDSV2 SAVING "   CONSTANT HEAD" ON UNIT  53 AT TIME STEP 97, STRESS PERIOD   2
 UBDSV1 SAVING "FLOW RIGHT FACE " ON UNIT  53 AT TIME STEP 97, STRESS PERIOD   2
 UBDSV1 SAVING "FLOW FRONT FACE " ON UNIT  53 AT TIME STEP 97, STRESS PERIOD   2
1
              HEAD IN LAYER   1 AT END OF TIME STEP  97 IN STRESS PERIOD    2
  ---------------------------------------------------------------------------

            1           2           3           4           5           6           7           8           9          10
 ........................................................................................................................
   1    9.991       8.882       7.773       6.665       5.556       4.447       3.338       2.229       1.120      1.1090E-02
   2    9.991       8.882       7.773       6.665       5.556       4.447       3.338       2.229       1.120      1.1090E-02
   3    9.991       8.882       7.773       6.665       5.556       4.447       3.338       2.229       1.120      1.1090E-02
   4    9.991       8.882       7.773       6.665       5.556       4.447       3.338       2.229       1.120      1.1090E-02
   5    9.991       8.882       7.773       6.665       5.556       4.447       3.338       2.229       1.120      1.1090E-02
   6    9.991       8.882       7.773       6.665       5.556       4.447       3.338       2.229       1.120      1.1090E-02
   7    9.991       8.882       7.773       6.665       5.556       4.447       3.338       2.229       1.120      1.1090E-02
   8    9.991       8.882       7.773       6.665       5.556       4.447       3.338       2.229       1.120      1.1090E-02
   9    9.991       8.882       7.773       6.665       5.556       4.447       3.338       2.229       1.120      1.1090E-02
  10    9.991       8.882       7.773       6.665       5.556       4.447       3.338       2.229       1.120      1.1090E-02

 HEAD WILL BE SAVED ON UNIT   51 AT END OF TIME STEP   97, STRESS PERIOD    2

 DRAWDOWN WILL BE SAVED ON UNIT   52 AT END OF TIME STEP   97, STRESS PERIOD    2
1
  VOLUMETRIC BUDGET FOR ENTIRE MODEL AT END OF TIME STEP   97, STRESS PERIOD   2
  ------------------------------------------------------------------------------

     CUMULATIVE VOLUMES      L**3       RATES FOR THIS TIME STEP      L**3/T
     ------------------                 ------------------------

           IN:                                      IN:
           ---                                      ---
             STORAGE =       24994.2969               STORAGE =       9.3781E-02
       CONSTANT HEAD =           0.0000         CONSTANT HEAD =           0.0000
               WELLS =           0.0000                 WELLS =           0.0000
     HEAD DEP BOUNDS =       46342.7891       HEAD DEP BOUNDS =         554.3514

            TOTAL IN =       71337.0859              TOTAL IN =         554.4453

          OUT:                                     OUT:
          ----                                     ----
             STORAGE =           0.0000               STORAGE =           0.0000
       CONSTANT HEAD =           0.0000         CONSTANT HEAD =           0.0000
               WELLS =           0.0000                 WELLS =           0.0000
     HEAD DEP BOUNDS =       71355.8203       HEAD DEP BOUNDS =         554.4919

           TOTAL OUT =       71355.8203             TOTAL OUT =         554.4919

            IN - OUT =         -18.7344              IN - OUT =      -4.6692E-02

 PERCENT DISCREPANCY =          -0.03     PERCENT DISCREPANCY =          -0.01






         TIME SUMMARY AT END OF TIME STEP   97 IN STRESS PERIOD    2
                    SECONDS     MINUTES      HOURS       DAYS        YEARS
                    -----------------------------------------------------------
   TIME STEP LENGTH  86400.      1440.0      24.000      1.0000     2.73785E-03
 STRESS PERIOD TIME 8.38080E+06 1.39680E+05  2328.0      97.000     0.26557    
         TOTAL TIME 8.46720E+06 1.41120E+05  2352.0      98.000     0.26831    
1

 SOLVING FOR HEAD 
     1 ITERATIONS FOR TIME STEP  98 IN STRESS PERIOD    2

 OUTPUT CONTROL FOR STRESS PERIOD    2   TIME STEP   98
    SAVE HEAD FOR ALL LAYERS
    SAVE DRAWDOWN FOR ALL LAYERS
    SAVE BUDGET
    PRINT HEAD FOR ALL LAYERS
    PRINT BUDGET
 UBDSV1 SAVING "         STORAGE" ON UNIT  53 AT TIME STEP 98, STRESS PERIOD   2
 UBDSV2 SAVING "   CONSTANT HEAD" ON UNIT  53 AT TIME STEP 98, STRESS PERIOD   2
 UBDSV1 SAVING "FLOW RIGHT FACE " ON UNIT  53 AT TIME STEP 98, STRESS PERIOD   2
 UBDSV1 SAVING "FLOW FRONT FACE " ON UNIT  53 AT TIME STEP 98, STRESS PERIOD   2
1
              HEAD IN LAYER   1 AT END OF TIME STEP  98 IN STRESS PERIOD    2
  ---------------------------------------------------------------------------

            1           2           3           4           5           6           7           8           9          10
 ........................................................................................................................
   1    9.991       8.882       7.773       6.665       5.556       4.447       3.338       2.229       1.120      1.1090E-02
   2    9.991       8.882       7.773       6.665       5.556       4.447       3.338       2.229       1.120      1.1090E-02
   3    9.991       8.882       7.773       6.665       5.556       4.447       3.338       2.229       1.120      1.1090E-02
   4    9.991       8.882       7.773       6.665       5.556       4.447       3.338       2.229       1.120      1.1090E-02
   5    9.991       8.882       7.773       6.665       5.556       4.447       3.338       2.229       1.120      1.1090E-02
   6    9.991       8.882       7.773       6.665       5.556       4.447       3.338       2.229       1.120      1.1090E-02
   7    9.991       8.882       7.773       6.665       5.556       4.447       3.338       2.229       1.120      1.1090E-02
   8    9.991       8.882       7.773       6.665       5.556       4.447       3.338       2.229       1.120      1.1090E-02
   9    9.991       8.882       7.773       6.664       5.556       4.447       3.338       2.229       1.120      1.1090E-02
  10    9.991       8.882       7.773       6.664       5.556       4.447       3.338       2.229       1.120      1.1090E-02

 HEAD WILL BE SAVED ON UNIT   51 AT END OF TIME STEP   98, STRESS PERIOD    2

 DRAWDOWN WILL BE SAVED ON UNIT   52 AT END OF TIME STEP   98, STRESS PERIOD    2
1
  VOLUMETRIC BUDGET FOR ENTIRE MODEL AT END OF TIME STEP   98, STRESS PERIOD   2
  ------------------------------------------------------------------------------

     CUMULATIVE VOLUMES      L**3       RATES FOR THIS TIME STEP      L**3/T
     ------------------                 ------------------------

           IN:                                      IN:
           ---                                      ---
             STORAGE =       24994.3828               STORAGE =       8.5998E-02
       CONSTANT HEAD =           0.0000         CONSTANT HEAD =           0.0000
               WELLS =           0.0000                 WELLS =           0.0000
     HEAD DEP BOUNDS =       46897.1445       HEAD DEP BOUNDS =         554.3566

            TOTAL IN =       71891.5312              TOTAL IN =         554.4426

          OUT:                                     OUT:
          ----                                     ----
             STORAGE =           0.0000               STORAGE =           0.0000
       CONSTANT HEAD =           0.0000         CONSTANT HEAD =           0.0000
               WELLS =           0.0000                 WELLS =           0.0000
     HEAD DEP BOUNDS =       71910.3047       HEAD DEP BOUNDS =         554.4867

           TOTAL OUT =       71910.3047             TOTAL OUT =         554.4867

            IN - OUT =         -18.7734              IN - OUT =      -4.4128E-02

 PERCENT DISCREPANCY =          -0.03     PERCENT DISCREPANCY =          -0.01






         TIME SUMMARY AT END OF TIME STEP   98 IN STRESS PERIOD    2
                    SECONDS     MINUTES      HOURS       DAYS        YEARS
                    -----------------------------------------------------------
   TIME STEP LENGTH  86400.      1440.0      24.000      1.0000     2.73785E-03
 STRESS PERIOD TIME 8.46720E+06 1.41120E+05  2352.0      98.000     0.26831    
         TOTAL TIME 8.55360E+06 1.42560E+05  2376.0      99.000     0.27105    
1

 SOLVING FOR HEAD 
     1 ITERATIONS FOR TIME STEP  99 IN STRESS PERIOD    2

 OUTPUT CONTROL FOR STRESS PERIOD    2   TIME STEP   99
    SAVE HEAD FOR ALL LAYERS
    SAVE DRAWDOWN FOR ALL LAYERS
    SAVE BUDGET
    PRINT HEAD FOR ALL LAYERS
    PRINT BUDGET
 UBDSV1 SAVING "         STORAGE" ON UNIT  53 AT TIME STEP 99, STRESS PERIOD   2
 UBDSV2 SAVING "   CONSTANT HEAD" ON UNIT  53 AT TIME STEP 99, STRESS PERIOD   2
 UBDSV1 SAVING "FLOW RIGHT FACE " ON UNIT  53 AT TIME STEP 99, STRESS PERIOD   2
 UBDSV1 SAVING "FLOW FRONT FACE " ON UNIT  53 AT TIME STEP 99, STRESS PERIOD   2
1
              HEAD IN LAYER   1 AT END OF TIME STEP  99 IN STRESS PERIOD    2
  ---------------------------------------------------------------------------

            1           2           3           4           5           6           7           8           9          10
 ........................................................................................................................
   1    9.991       8.882       7.773       6.664       5.556       4.447       3.338       2.229       1.120      1.1090E-02
   2    9.991       8.882       7.773       6.664       5.556       4.447       3.338       2.229       1.120      1.1090E-02
   3    9.991       8.882       7.773       6.664       5.556       4.447       3.338       2.229       1.120      1.1090E-02
   4    9.991       8.882       7.773       6.664       5.556       4.447       3.338       2.229       1.120      1.1090E-02
   5    9.991       8.882       7.773       6.664       5.556       4.447       3.338       2.229       1.120      1.1090E-02
   6    9.991       8.882       7.773       6.664       5.556       4.447       3.338       2.229       1.120      1.1090E-02
   7    9.991       8.882       7.773       6.664       5.556       4.447       3.338       2.229       1.120      1.1090E-02
   8    9.991       8.882       7.773       6.664       5.556       4.447       3.338       2.229       1.120      1.1090E-02
   9    9.991       8.882       7.773       6.664       5.556       4.447       3.338       2.229       1.120      1.1090E-02
  10    9.991       8.882       7.773       6.664       5.556       4.447       3.338       2.229       1.120      1.1090E-02

 HEAD WILL BE SAVED ON UNIT   51 AT END OF TIME STEP   99, STRESS PERIOD    2

 DRAWDOWN WILL BE SAVED ON UNIT   52 AT END OF TIME STEP   99, STRESS PERIOD    2
1
  VOLUMETRIC BUDGET FOR ENTIRE MODEL AT END OF TIME STEP   99, STRESS PERIOD   2
  ------------------------------------------------------------------------------

     CUMULATIVE VOLUMES      L**3       RATES FOR THIS TIME STEP      L**3/T
     ------------------                 ------------------------

           IN:                                      IN:
           ---                                      ---
             STORAGE =       24994.4629               STORAGE =       7.9223E-02
       CONSTANT HEAD =           0.0000         CONSTANT HEAD =           0.0000
               WELLS =           0.0000                 WELLS =           0.0000
     HEAD DEP BOUNDS =       47451.5078       HEAD DEP BOUNDS =         554.3613

            TOTAL IN =       72445.9688              TOTAL IN =         554.4406

          OUT:                                     OUT:
          ----                                     ----
             STORAGE =           0.0000               STORAGE =           0.0000
       CONSTANT HEAD =           0.0000         CONSTANT HEAD =           0.0000
               WELLS =           0.0000                 WELLS =           0.0000
     HEAD DEP BOUNDS =       72464.7891       HEAD DEP BOUNDS =         554.4819

           TOTAL OUT =       72464.7891             TOTAL OUT =         554.4819

            IN - OUT =         -18.8203              IN - OUT =      -4.1321E-02

 PERCENT DISCREPANCY =          -0.03     PERCENT DISCREPANCY =          -0.01






         TIME SUMMARY AT END OF TIME STEP   99 IN STRESS PERIOD    2
                    SECONDS     MINUTES      HOURS       DAYS        YEARS
                    -----------------------------------------------------------
   TIME STEP LENGTH  86400.      1440.0      24.000      1.0000     2.73785E-03
 STRESS PERIOD TIME 8.55360E+06 1.42560E+05  2376.0      99.000     0.27105    
         TOTAL TIME 8.64000E+06 1.44000E+05  2400.0      100.00     0.27379    
1

 SOLVING FOR HEAD 
     1 ITERATIONS FOR TIME STEP 100 IN STRESS PERIOD    2

 MAXIMUM HEAD CHANGE FOR EACH ITERATION:

    HEAD CHANGE   HEAD CHANGE   HEAD CHANGE   HEAD CHANGE   HEAD CHANGE
  LAYER,ROW,COL LAYER,ROW,COL LAYER,ROW,COL LAYER,ROW,COL LAYER,ROW,COL
 ----------------------------------------------------------------------
    -0.2567E-04
  (  1,  4,  6)


 OUTPUT CONTROL FOR STRESS PERIOD    2   TIME STEP  100
    SAVE HEAD FOR ALL LAYERS
    SAVE DRAWDOWN FOR ALL LAYERS
    SAVE BUDGET
    PRINT HEAD FOR ALL LAYERS
    PRINT BUDGET
 UBDSV1 SAVING "         STORAGE" ON UNIT  53 AT TIME STEP100, STRESS PERIOD   2
 UBDSV2 SAVING "   CONSTANT HEAD" ON UNIT  53 AT TIME STEP100, STRESS PERIOD   2
 UBDSV1 SAVING "FLOW RIGHT FACE " ON UNIT  53 AT TIME STEP100, STRESS PERIOD   2
 UBDSV1 SAVING "FLOW FRONT FACE " ON UNIT  53 AT TIME STEP100, STRESS PERIOD   2
1
              HEAD IN LAYER   1 AT END OF TIME STEP 100 IN STRESS PERIOD    2
  ---------------------------------------------------------------------------

            1           2           3           4           5           6           7           8           9          10
 ........................................................................................................................
   1    9.991       8.882       7.773       6.664       5.556       4.447       3.338       2.229       1.120      1.1090E-02
   2    9.991       8.882       7.773       6.664       5.556       4.447       3.338       2.229       1.120      1.1090E-02
   3    9.991       8.882       7.773       6.664       5.556       4.447       3.338       2.229       1.120      1.1090E-02
   4    9.991       8.882       7.773       6.664       5.556       4.447       3.338       2.229       1.120      1.1090E-02
   5    9.991       8.882       7.773       6.664       5.556       4.447       3.338       2.229       1.120      1.1090E-02
   6    9.991       8.882       7.773       6.664       5.556       4.447       3.338       2.229       1.120      1.1090E-02
   7    9.991       8.882       7.773       6.664       5.556       4.447       3.338       2.229       1.120      1.1090E-02
   8    9.991       8.882       7.773       6.664       5.556       4.447       3.338       2.229       1.120      1.1090E-02
   9    9.991       8.882       7.773       6.664       5.556       4.447       3.338       2.229       1.120      1.1090E-02
  10    9.991       8.882       7.773       6.664       5.556       4.447       3.338       2.229       1.120      1.1089E-02

 HEAD WILL BE SAVED ON UNIT   51 AT END OF TIME STEP  100, STRESS PERIOD    2

 DRAWDOWN WILL BE SAVED ON UNIT   52 AT END OF TIME STEP  100, STRESS PERIOD    2
1
  VOLUMETRIC BUDGET FOR ENTIRE MODEL AT END OF TIME STEP  100, STRESS PERIOD   2
  ------------------------------------------------------------------------------

     CUMULATIVE VOLUMES      L**3       RATES FOR THIS TIME STEP      L**3/T
     ------------------                 ------------------------

           IN:                                      IN:
           ---                                      ---
             STORAGE =       24994.5352               STORAGE =       7.2913E-02
       CONSTANT HEAD =           0.0000         CONSTANT HEAD =           0.0000
               WELLS =           0.0000                 WELLS =           0.0000
     HEAD DEP BOUNDS =       48005.8750       HEAD DEP BOUNDS =         554.3657

            TOTAL IN =       73000.4062              TOTAL IN =         554.4386

          OUT:                                     OUT:
          ----                                     ----
             STORAGE =           0.0000               STORAGE =           0.0000
       CONSTANT HEAD =           0.0000         CONSTANT HEAD =           0.0000
               WELLS =           0.0000                 WELLS =           0.0000
     HEAD DEP BOUNDS =       73019.2656       HEAD DEP BOUNDS =         554.4774

           TOTAL OUT =       73019.2656             TOTAL OUT =         554.4774

            IN - OUT =         -18.8594              IN - OUT =      -3.8818E-02

 PERCENT DISCREPANCY =          -0.03     PERCENT DISCREPANCY =          -0.01






         TIME SUMMARY AT END OF TIME STEP  100 IN STRESS PERIOD    2
                    SECONDS     MINUTES      HOURS       DAYS        YEARS
                    -----------------------------------------------------------
   TIME STEP LENGTH  86400.      1440.0      24.000      1.0000     2.73785E-03
 STRESS PERIOD TIME 8.64000E+06 1.44000E+05  2400.0      100.00     0.27379    
         TOTAL TIME 8.72640E+06 1.45440E+05  2424.0      101.00     0.27652    
1
1
                            STRESS PERIOD NO.    3, LENGTH =   100.0000    
                            -----------------------------------------------

                              NUMBER OF TIME STEPS =   100

                               MULTIPLIER FOR DELT =     1.000

                            INITIAL TIME STEP SIZE =   1.000000    

 WELL NO.  LAYER   ROW   COL   STRESS RATE         
 --------------------------------------------------
      1      1      5      5      -100.0    

      1 WELL 

 REUSING NON-PARAMETER GHB CELLS FROM LAST STRESS PERIOD

     20 GHB CELLS

 SOLVING FOR HEAD 

     4 ITERATIONS FOR TIME STEP   1 IN STRESS PERIOD    3

 OUTPUT CONTROL FOR STRESS PERIOD    3   TIME STEP    1
    SAVE HEAD FOR ALL LAYERS
    SAVE DRAWDOWN FOR ALL LAYERS
    SAVE BUDGET
    PRINT HEAD FOR ALL LAYERS
    PRINT BUDGET
 UBDSV1 SAVING "         STORAGE" ON UNIT  53 AT TIME STEP  1, STRESS PERIOD   3
 UBDSV2 SAVING "   CONSTANT HEAD" ON UNIT  53 AT TIME STEP  1, STRESS PERIOD   3
 UBDSV1 SAVING "FLOW RIGHT FACE " ON UNIT  53 AT TIME STEP  1, STRESS PERIOD   3
 UBDSV1 SAVING "FLOW FRONT FACE " ON UNIT  53 AT TIME STEP  1, STRESS PERIOD   3
1
              HEAD IN LAYER   1 AT END OF TIME STEP   1 IN STRESS PERIOD    3
  ---------------------------------------------------------------------------

            1           2           3           4           5           6           7           8           9          10
 ........................................................................................................................
   1    9.991       8.881       7.771       6.660       5.550       4.442       3.335       2.227       1.119      1.1083E-02
   2    9.991       8.880       7.768       6.655       5.543       4.437       3.332       2.226       1.119      1.1079E-02
   3    9.991       8.878       7.761       6.639       5.516       4.422       3.326       2.224       1.118      1.1072E-02
   4    9.991       8.874       7.749       6.601       5.420       4.383       3.313       2.220       1.117      1.1061E-02
   5    9.991       8.871       7.734       6.529       5.048       4.312       3.298       2.217       1.116      1.1054E-02
   6    9.991       8.874       7.749       6.601       5.421       4.383       3.313       2.220       1.117      1.1061E-02
   7    9.991       8.878       7.761       6.640       5.516       4.422       3.326       2.224       1.118      1.1072E-02
   8    9.991       8.880       7.768       6.655       5.543       4.438       3.333       2.227       1.119      1.1080E-02
   9    9.991       8.881       7.771       6.661       5.551       4.443       3.336       2.228       1.120      1.1085E-02
  10    9.991       8.882       7.772       6.663       5.554       4.445       3.337       2.228       1.120      1.1087E-02

 HEAD WILL BE SAVED ON UNIT   51 AT END OF TIME STEP    1, STRESS PERIOD    3

 DRAWDOWN WILL BE SAVED ON UNIT   52 AT END OF TIME STEP    1, STRESS PERIOD    3
1
  VOLUMETRIC BUDGET FOR ENTIRE MODEL AT END OF TIME STEP    1, STRESS PERIOD   3
  ------------------------------------------------------------------------------

     CUMULATIVE VOLUMES      L**3       RATES FOR THIS TIME STEP      L**3/T
     ------------------                 ------------------------

           IN:                                      IN:
           ---                                      ---
             STORAGE =       25091.7168               STORAGE =          97.1807
       CONSTANT HEAD =           0.0000         CONSTANT HEAD =           0.0000
               WELLS =           0.0000                 WELLS =           0.0000
     HEAD DEP BOUNDS =       48562.3438       HEAD DEP BOUNDS =         556.4703

            TOTAL IN =       73654.0625              TOTAL IN =         653.6511

          OUT:                                     OUT:
          ----                                     ----
             STORAGE =           0.0000               STORAGE =           0.0000
       CONSTANT HEAD =           0.0000         CONSTANT HEAD =           0.0000
               WELLS =         100.0000                 WELLS =         100.0000
     HEAD DEP BOUNDS =       73572.9375       HEAD DEP BOUNDS =         553.6743

           TOTAL OUT =       73672.9375             TOTAL OUT =         653.6743

            IN - OUT =         -18.8750              IN - OUT =      -2.3193E-02

 PERCENT DISCREPANCY =          -0.03     PERCENT DISCREPANCY =          -0.00






         TIME SUMMARY AT END OF TIME STEP    1 IN STRESS PERIOD    3
                    SECONDS     MINUTES      HOURS       DAYS        YEARS
                    -----------------------------------------------------------
   TIME STEP LENGTH  86400.      1440.0      24.000      1.0000     2.73785E-03
 STRESS PERIOD TIME  86400.      1440.0      24.000      1.0000     2.73785E-03
         TOTAL TIME 8.81280E+06 1.46880E+05  2448.0      102.00     0.27926    
1

 SOLVING FOR HEAD 
     4 ITERATIONS FOR TIME STEP   2 IN STRESS PERIOD    3

 OUTPUT CONTROL FOR STRESS PERIOD    3   TIME STEP    2
    SAVE HEAD FOR ALL LAYERS
    SAVE DRAWDOWN FOR ALL LAYERS
    SAVE BUDGET
    PRINT HEAD FOR ALL LAYERS
    PRINT BUDGET
 UBDSV1 SAVING "         STORAGE" ON UNIT  53 AT TIME STEP  2, STRESS PERIOD   3
 UBDSV2 SAVING "   CONSTANT HEAD" ON UNIT  53 AT TIME STEP  2, STRESS PERIOD   3
 UBDSV1 SAVING "FLOW RIGHT FACE " ON UNIT  53 AT TIME STEP  2, STRESS PERIOD   3
 UBDSV1 SAVING "FLOW FRONT FACE " ON UNIT  53 AT TIME STEP  2, STRESS PERIOD   3
1
              HEAD IN LAYER   1 AT END OF TIME STEP   2 IN STRESS PERIOD    3
  ---------------------------------------------------------------------------

            1           2           3           4           5           6           7           8           9          10
 ........................................................................................................................
   1    9.991       8.878       7.764       6.650       5.539       4.432       3.328       2.223       1.118      1.1064E-02
   2    9.991       8.875       7.757       6.638       5.522       4.420       3.321       2.220       1.116      1.1053E-02
   3    9.991       8.869       7.741       6.605       5.470       4.387       3.305       2.213       1.114      1.1030E-02
   4    9.991       8.861       7.715       6.535       5.322       4.317       3.278       2.204       1.111      1.1002E-02
   5    9.991       8.855       7.690       6.431       4.867       4.213       3.253       2.198       1.109      1.0986E-02
   6    9.991       8.861       7.715       6.535       5.322       4.317       3.278       2.204       1.111      1.1003E-02
   7    9.991       8.869       7.742       6.605       5.471       4.387       3.305       2.214       1.114      1.1032E-02
   8    9.991       8.875       7.758       6.639       5.523       4.421       3.322       2.221       1.117      1.1056E-02
   9    9.991       8.879       7.766       6.654       5.543       4.436       3.330       2.225       1.118      1.1071E-02
  10    9.991       8.880       7.769       6.659       5.549       4.441       3.334       2.226       1.119      1.1078E-02

 HEAD WILL BE SAVED ON UNIT   51 AT END OF TIME STEP    2, STRESS PERIOD    3

 DRAWDOWN WILL BE SAVED ON UNIT   52 AT END OF TIME STEP    2, STRESS PERIOD    3
1
  VOLUMETRIC BUDGET FOR ENTIRE MODEL AT END OF TIME STEP    2, STRESS PERIOD   3
  ------------------------------------------------------------------------------

     CUMULATIVE VOLUMES      L**3       RATES FOR THIS TIME STEP      L**3/T
     ------------------                 ------------------------

           IN:                                      IN:
           ---                                      ---
             STORAGE =       25183.3184               STORAGE =          91.6009
       CONSTANT HEAD =           0.0000         CONSTANT HEAD =           0.0000
               WELLS =           0.0000                 WELLS =           0.0000
     HEAD DEP BOUNDS =       49122.5977       HEAD DEP BOUNDS =         560.2534

            TOTAL IN =       74305.9141              TOTAL IN =         651.8542

          OUT:                                     OUT:
          ----                                     ----
             STORAGE =           0.0000               STORAGE =           0.0000
       CONSTANT HEAD =           0.0000         CONSTANT HEAD =           0.0000
               WELLS =         200.0000                 WELLS =         100.0000
     HEAD DEP BOUNDS =       74124.8125       HEAD DEP BOUNDS =         551.8740

           TOTAL OUT =       74324.8125             TOTAL OUT =         651.8740

            IN - OUT =         -18.8984              IN - OUT =      -1.9714E-02

 PERCENT DISCREPANCY =          -0.03     PERCENT DISCREPANCY =          -0.00






         TIME SUMMARY AT END OF TIME STEP    2 IN STRESS PERIOD    3
                    SECONDS     MINUTES      HOURS       DAYS        YEARS
                    -----------------------------------------------------------
   TIME STEP LENGTH  86400.      1440.0      24.000      1.0000     2.73785E-03
 STRESS PERIOD TIME 1.72800E+05  2880.0      48.000      2.0000     5.47570E-03
         TOTAL TIME 8.89920E+06 1.48320E+05  2472.0      103.00     0.28200    
1

 SOLVING FOR HEAD 
     4 ITERATIONS FOR TIME STEP   3 IN STRESS PERIOD    3

 OUTPUT CONTROL FOR STRESS PERIOD    3   TIME STEP    3
    SAVE HEAD FOR ALL LAYERS
    SAVE DRAWDOWN FOR ALL LAYERS
    SAVE BUDGET
    PRINT HEAD FOR ALL LAYERS
    PRINT BUDGET
 UBDSV1 SAVING "         STORAGE" ON UNIT  53 AT TIME STEP  3, STRESS PERIOD   3
 UBDSV2 SAVING "   CONSTANT HEAD" ON UNIT  53 AT TIME STEP  3, STRESS PERIOD   3
 UBDSV1 SAVING "FLOW RIGHT FACE " ON UNIT  53 AT TIME STEP  3, STRESS PERIOD   3
 UBDSV1 SAVING "FLOW FRONT FACE " ON UNIT  53 AT TIME STEP  3, STRESS PERIOD   3
1
              HEAD IN LAYER   1 AT END OF TIME STEP   3 IN STRESS PERIOD    3
  ---------------------------------------------------------------------------

            1           2           3           4           5           6           7           8           9          10
 ........................................................................................................................
   1    9.991       8.872       7.754       6.636       5.522       4.417       3.317       2.216       1.114      1.1032E-02
   2    9.991       8.868       7.743       6.617       5.498       4.398       3.306       2.211       1.112      1.1011E-02
   3    9.991       8.859       7.719       6.570       5.429       4.351       3.281       2.200       1.108      1.0971E-02
   4    9.990       8.846       7.683       6.481       5.254       4.262       3.244       2.186       1.103      1.0924E-02
   5    9.990       8.838       7.652       6.365       4.777       4.146       3.213       2.176       1.101      1.0899E-02
   6    9.990       8.846       7.683       6.482       5.255       4.263       3.244       2.186       1.103      1.0926E-02
   7    9.991       8.859       7.720       6.571       5.430       4.353       3.282       2.200       1.108      1.0975E-02
   8    9.991       8.869       7.745       6.620       5.501       4.402       3.308       2.212       1.113      1.1018E-02
   9    9.991       8.875       7.759       6.643       5.531       4.425       3.322       2.220       1.116      1.1047E-02
  10    9.991       8.877       7.764       6.652       5.541       4.434       3.328       2.223       1.117      1.1060E-02

 HEAD WILL BE SAVED ON UNIT   51 AT END OF TIME STEP    3, STRESS PERIOD    3

 DRAWDOWN WILL BE SAVED ON UNIT   52 AT END OF TIME STEP    3, STRESS PERIOD    3
1
  VOLUMETRIC BUDGET FOR ENTIRE MODEL AT END OF TIME STEP    3, STRESS PERIOD   3
  ------------------------------------------------------------------------------

     CUMULATIVE VOLUMES      L**3       RATES FOR THIS TIME STEP      L**3/T
     ------------------                 ------------------------

           IN:                                      IN:
           ---                                      ---
             STORAGE =       25267.8379               STORAGE =          84.5199
       CONSTANT HEAD =           0.0000         CONSTANT HEAD =           0.0000
               WELLS =           0.0000                 WELLS =           0.0000
     HEAD DEP BOUNDS =       49687.3945       HEAD DEP BOUNDS =         564.7952

            TOTAL IN =       74955.2344              TOTAL IN =         649.3151

          OUT:                                     OUT:
          ----                                     ----
             STORAGE =           0.0000               STORAGE =           0.0000
       CONSTANT HEAD =           0.0000         CONSTANT HEAD =           0.0000
               WELLS =         300.0000                 WELLS =         100.0000
     HEAD DEP BOUNDS =       74674.1328       HEAD DEP BOUNDS =         549.3181

           TOTAL OUT =       74974.1328             TOTAL OUT =         649.3181

            IN - OUT =         -18.8984              IN - OUT =      -2.9297E-03

 PERCENT DISCREPANCY =          -0.03     PERCENT DISCREPANCY =          -0.00






         TIME SUMMARY AT END OF TIME STEP    3 IN STRESS PERIOD    3
                    SECONDS     MINUTES      HOURS       DAYS        YEARS
                    -----------------------------------------------------------
   TIME STEP LENGTH  86400.      1440.0      24.000      1.0000     2.73785E-03
 STRESS PERIOD TIME 2.59200E+05  4320.0      72.000      3.0000     8.21355E-03
         TOTAL TIME 8.98560E+06 1.49760E+05  2496.0      104.00     0.28474    
1

 SOLVING FOR HEAD 
     4 ITERATIONS FOR TIME STEP   4 IN STRESS PERIOD    3

 OUTPUT CONTROL FOR STRESS PERIOD    3   TIME STEP    4
    SAVE HEAD FOR ALL LAYERS
    SAVE DRAWDOWN FOR ALL LAYERS
    SAVE BUDGET
    PRINT HEAD FOR ALL LAYERS
    PRINT BUDGET
 UBDSV1 SAVING "         STORAGE" ON UNIT  53 AT TIME STEP  4, STRESS PERIOD   3
 UBDSV2 SAVING "   CONSTANT HEAD" ON UNIT  53 AT TIME STEP  4, STRESS PERIOD   3
 UBDSV1 SAVING "FLOW RIGHT FACE " ON UNIT  53 AT TIME STEP  4, STRESS PERIOD   3
 UBDSV1 SAVING "FLOW FRONT FACE " ON UNIT  53 AT TIME STEP  4, STRESS PERIOD   3
1
              HEAD IN LAYER   1 AT END OF TIME STEP   4 IN STRESS PERIOD    3
  ---------------------------------------------------------------------------

            1           2           3           4           5           6           7           8           9          10
 ........................................................................................................................
   1    9.991       8.866       7.742       6.619       5.504       4.400       3.303       2.207       1.110      1.0988E-02
   2    9.991       8.860       7.727       6.595       5.473       4.376       3.288       2.200       1.107      1.0958E-02
   3    9.990       8.848       7.698       6.539       5.393       4.319       3.257       2.185       1.101      1.0902E-02
   4    9.990       8.832       7.654       6.439       5.205       4.220       3.213       2.167       1.095      1.0840E-02
   5    9.990       8.823       7.620       6.317       4.721       4.097       3.179       2.156       1.091      1.0808E-02
   6    9.990       8.833       7.655       6.440       5.206       4.221       3.214       2.167       1.095      1.0843E-02
   7    9.990       8.849       7.699       6.542       5.396       4.322       3.259       2.186       1.102      1.0909E-02
   8    9.991       8.862       7.731       6.600       5.479       4.381       3.293       2.202       1.108      1.0971E-02
   9    9.991       8.870       7.750       6.631       5.517       4.412       3.312       2.213       1.112      1.1014E-02
  10    9.991       8.874       7.758       6.643       5.531       4.424       3.321       2.218       1.115      1.1035E-02

 HEAD WILL BE SAVED ON UNIT   51 AT END OF TIME STEP    4, STRESS PERIOD    3

 DRAWDOWN WILL BE SAVED ON UNIT   52 AT END OF TIME STEP    4, STRESS PERIOD    3
1
  VOLUMETRIC BUDGET FOR ENTIRE MODEL AT END OF TIME STEP    4, STRESS PERIOD   3
  ------------------------------------------------------------------------------

     CUMULATIVE VOLUMES      L**3       RATES FOR THIS TIME STEP      L**3/T
     ------------------                 ------------------------

           IN:                                      IN:
           ---                                      ---
             STORAGE =       25344.7715               STORAGE =          76.9332
       CONSTANT HEAD =           0.0000         CONSTANT HEAD =           0.0000
               WELLS =           0.0000                 WELLS =           0.0000
     HEAD DEP BOUNDS =       50256.8008       HEAD DEP BOUNDS =         569.4075

            TOTAL IN =       75601.5703              TOTAL IN =         646.3406

          OUT:                                     OUT:
          ----                                     ----
             STORAGE =           0.0000               STORAGE =           0.0000
       CONSTANT HEAD =           0.0000         CONSTANT HEAD =           0.0000
               WELLS =         400.0000                 WELLS =         100.0000
     HEAD DEP BOUNDS =       75220.4766       HEAD DEP BOUNDS =         546.3449

           TOTAL OUT =       75620.4766             TOTAL OUT =         646.3449

            IN - OUT =         -18.9062              IN - OUT =      -4.2725E-03

 PERCENT DISCREPANCY =          -0.03     PERCENT DISCREPANCY =          -0.00






         TIME SUMMARY AT END OF TIME STEP    4 IN STRESS PERIOD    3
                    SECONDS     MINUTES      HOURS       DAYS        YEARS
                    -----------------------------------------------------------
   TIME STEP LENGTH  86400.      1440.0      24.000      1.0000     2.73785E-03
 STRESS PERIOD TIME 3.45600E+05  5760.0      96.000      4.0000     1.09514E-02
         TOTAL TIME 9.07200E+06 1.51200E+05  2520.0      105.00     0.28747    
1

 SOLVING FOR HEAD 
     4 ITERATIONS FOR TIME STEP   5 IN STRESS PERIOD    3

 OUTPUT CONTROL FOR STRESS PERIOD    3   TIME STEP    5
    SAVE HEAD FOR ALL LAYERS
    SAVE DRAWDOWN FOR ALL LAYERS
    SAVE BUDGET
    PRINT HEAD FOR ALL LAYERS
    PRINT BUDGET
 UBDSV1 SAVING "         STORAGE" ON UNIT  53 AT TIME STEP  5, STRESS PERIOD   3
 UBDSV2 SAVING "   CONSTANT HEAD" ON UNIT  53 AT TIME STEP  5, STRESS PERIOD   3
 UBDSV1 SAVING "FLOW RIGHT FACE " ON UNIT  53 AT TIME STEP  5, STRESS PERIOD   3
 UBDSV1 SAVING "FLOW FRONT FACE " ON UNIT  53 AT TIME STEP  5, STRESS PERIOD   3
1
              HEAD IN LAYER   1 AT END OF TIME STEP   5 IN STRESS PERIOD    3
  ---------------------------------------------------------------------------

            1           2           3           4           5           6           7           8           9          10
 ........................................................................................................................
   1    9.991       8.859       7.729       6.601       5.484       4.381       3.288       2.197       1.105      1.0936E-02
   2    9.991       8.852       7.712       6.574       5.449       4.354       3.271       2.188       1.101      1.0898E-02
   3    9.990       8.838       7.678       6.512       5.363       4.291       3.235       2.170       1.094      1.0831E-02
   4    9.990       8.820       7.631       6.406       5.168       4.185       3.187       2.150       1.086      1.0757E-02
   5    9.990       8.810       7.595       6.281       4.680       4.060       3.150       2.138       1.083      1.0721E-02
   6    9.990       8.821       7.632       6.408       5.169       4.187       3.188       2.151       1.087      1.0761E-02
   7    9.990       8.839       7.681       6.516       5.367       4.295       3.238       2.172       1.095      1.0842E-02
   8    9.991       8.855       7.718       6.582       5.458       4.362       3.277       2.192       1.103      1.0920E-02
   9    9.991       8.865       7.740       6.617       5.502       4.398       3.301       2.205       1.109      1.0976E-02
  10    9.991       8.870       7.750       6.633       5.520       4.413       3.312       2.211       1.111      1.1004E-02

 HEAD WILL BE SAVED ON UNIT   51 AT END OF TIME STEP    5, STRESS PERIOD    3

 DRAWDOWN WILL BE SAVED ON UNIT   52 AT END OF TIME STEP    5, STRESS PERIOD    3
1
  VOLUMETRIC BUDGET FOR ENTIRE MODEL AT END OF TIME STEP    5, STRESS PERIOD   3
  ------------------------------------------------------------------------------

     CUMULATIVE VOLUMES      L**3       RATES FOR THIS TIME STEP      L**3/T
     ------------------                 ------------------------

           IN:                                      IN:
           ---                                      ---
             STORAGE =       25414.2266               STORAGE =          69.4556
       CONSTANT HEAD =           0.0000         CONSTANT HEAD =           0.0000
               WELLS =           0.0000                 WELLS =           0.0000
     HEAD DEP BOUNDS =       50830.5742       HEAD DEP BOUNDS =         573.7724

            TOTAL IN =       76244.7969              TOTAL IN =         643.2280

          OUT:                                     OUT:
          ----                                     ----
             STORAGE =           0.0000               STORAGE =           0.0000
       CONSTANT HEAD =           0.0000         CONSTANT HEAD =           0.0000
               WELLS =         500.0000                 WELLS =         100.0000
     HEAD DEP BOUNDS =       75763.7109       HEAD DEP BOUNDS =         543.2307

           TOTAL OUT =       76263.7109             TOTAL OUT =         643.2307

            IN - OUT =         -18.9141              IN - OUT =      -2.6245E-03

 PERCENT DISCREPANCY =          -0.02     PERCENT DISCREPANCY =          -0.00






         TIME SUMMARY AT END OF TIME STEP    5 IN STRESS PERIOD    3
                    SECONDS     MINUTES      HOURS       DAYS        YEARS
                    -----------------------------------------------------------
   TIME STEP LENGTH  86400.      1440.0      24.000      1.0000     2.73785E-03
 STRESS PERIOD TIME 4.32000E+05  7200.0      120.00      5.0000     1.36893E-02
         TOTAL TIME 9.15840E+06 1.52640E+05  2544.0      106.00     0.29021    
1

 SOLVING FOR HEAD 
     3 ITERATIONS FOR TIME STEP   6 IN STRESS PERIOD    3

 OUTPUT CONTROL FOR STRESS PERIOD    3   TIME STEP    6
    SAVE HEAD FOR ALL LAYERS
    SAVE DRAWDOWN FOR ALL LAYERS
    SAVE BUDGET
    PRINT HEAD FOR ALL LAYERS
    PRINT BUDGET
 UBDSV1 SAVING "         STORAGE" ON UNIT  53 AT TIME STEP  6, STRESS PERIOD   3
 UBDSV2 SAVING "   CONSTANT HEAD" ON UNIT  53 AT TIME STEP  6, STRESS PERIOD   3
 UBDSV1 SAVING "FLOW RIGHT FACE " ON UNIT  53 AT TIME STEP  6, STRESS PERIOD   3
 UBDSV1 SAVING "FLOW FRONT FACE " ON UNIT  53 AT TIME STEP  6, STRESS PERIOD   3
1
              HEAD IN LAYER   1 AT END OF TIME STEP   6 IN STRESS PERIOD    3
  ---------------------------------------------------------------------------

            1           2           3           4           5           6           7           8           9          10
 ........................................................................................................................
   1    9.991       8.852       7.716       6.584       5.465       4.363       3.273       2.186       1.099      1.0882E-02
   2    9.990       8.844       7.697       6.554       5.428       4.333       3.253       2.176       1.095      1.0838E-02
   3    9.990       8.828       7.661       6.489       5.337       4.266       3.215       2.156       1.087      1.0761E-02
   4    9.990       8.810       7.611       6.379       5.138       4.157       3.164       2.134       1.078      1.0679E-02
   5    9.990       8.799       7.574       6.253       4.648       4.030       3.126       2.122       1.074      1.0640E-02
   6    9.990       8.811       7.612       6.381       5.140       4.159       3.166       2.135       1.079      1.0686E-02
   7    9.990       8.831       7.665       6.494       5.343       4.272       3.220       2.160       1.088      1.0777E-02
   8    9.990       8.848       7.705       6.565       5.440       4.344       3.262       2.182       1.098      1.0868E-02
   9    9.991       8.860       7.730       6.604       5.488       4.384       3.289       2.197       1.104      1.0935E-02
  10    9.991       8.866       7.742       6.622       5.508       4.402       3.302       2.205       1.108      1.0968E-02

 HEAD WILL BE SAVED ON UNIT   51 AT END OF TIME STEP    6, STRESS PERIOD    3

 DRAWDOWN WILL BE SAVED ON UNIT   52 AT END OF TIME STEP    6, STRESS PERIOD    3
1
  VOLUMETRIC BUDGET FOR ENTIRE MODEL AT END OF TIME STEP    6, STRESS PERIOD   3
  ------------------------------------------------------------------------------

     CUMULATIVE VOLUMES      L**3       RATES FOR THIS TIME STEP      L**3/T
     ------------------                 ------------------------

           IN:                                      IN:
           ---                                      ---
             STORAGE =       25476.4570               STORAGE =          62.2298
       CONSTANT HEAD =           0.0000         CONSTANT HEAD =           0.0000
               WELLS =           0.0000                 WELLS =           0.0000
     HEAD DEP BOUNDS =       51408.3125       HEAD DEP BOUNDS =         577.7397

            TOTAL IN =       76884.7656              TOTAL IN =         639.9696

          OUT:                                     OUT:
          ----                                     ----
             STORAGE =           0.0000               STORAGE =           0.0000
       CONSTANT HEAD =           0.0000         CONSTANT HEAD =           0.0000
               WELLS =         600.0000                 WELLS =         100.0000
     HEAD DEP BOUNDS =       76303.8906       HEAD DEP BOUNDS =         540.1788

           TOTAL OUT =       76903.8906             TOTAL OUT =         640.1788

            IN - OUT =         -19.1250              IN - OUT =          -0.2092

 PERCENT DISCREPANCY =          -0.02     PERCENT DISCREPANCY =          -0.03






         TIME SUMMARY AT END OF TIME STEP    6 IN STRESS PERIOD    3
                    SECONDS     MINUTES      HOURS       DAYS        YEARS
                    -----------------------------------------------------------
   TIME STEP LENGTH  86400.      1440.0      24.000      1.0000     2.73785E-03
 STRESS PERIOD TIME 5.18400E+05  8640.0      144.00      6.0000     1.64271E-02
         TOTAL TIME 9.24480E+06 1.54080E+05  2568.0      107.00     0.29295    
1

 SOLVING FOR HEAD 
     3 ITERATIONS FOR TIME STEP   7 IN STRESS PERIOD    3

 OUTPUT CONTROL FOR STRESS PERIOD    3   TIME STEP    7
    SAVE HEAD FOR ALL LAYERS
    SAVE DRAWDOWN FOR ALL LAYERS
    SAVE BUDGET
    PRINT HEAD FOR ALL LAYERS
    PRINT BUDGET
 UBDSV1 SAVING "         STORAGE" ON UNIT  53 AT TIME STEP  7, STRESS PERIOD   3
 UBDSV2 SAVING "   CONSTANT HEAD" ON UNIT  53 AT TIME STEP  7, STRESS PERIOD   3
 UBDSV1 SAVING "FLOW RIGHT FACE " ON UNIT  53 AT TIME STEP  7, STRESS PERIOD   3
 UBDSV1 SAVING "FLOW FRONT FACE " ON UNIT  53 AT TIME STEP  7, STRESS PERIOD   3
1
              HEAD IN LAYER   1 AT END OF TIME STEP   7 IN STRESS PERIOD    3
  ---------------------------------------------------------------------------

            1           2           3           4           5           6           7           8           9          10
 ........................................................................................................................
   1    9.990       8.846       7.703       6.567       5.446       4.345       3.257       2.175       1.093      1.0827E-02
   2    9.990       8.837       7.684       6.536       5.407       4.313       3.237       2.164       1.089      1.0779E-02
   3    9.990       8.820       7.645       6.468       5.314       4.245       3.197       2.143       1.080      1.0696E-02
   4    9.990       8.801       7.594       6.357       5.113       4.133       3.144       2.120       1.071      1.0608E-02
   5    9.990       8.790       7.557       6.230       4.622       4.005       3.106       2.107       1.067      1.0568E-02
   6    9.990       8.802       7.596       6.360       5.116       4.136       3.146       2.122       1.072      1.0617E-02
   7    9.990       8.823       7.651       6.475       5.322       4.252       3.203       2.148       1.082      1.0717E-02
   8    9.990       8.842       7.694       6.550       5.422       4.327       3.248       2.172       1.093      1.0818E-02
   9    9.991       8.855       7.721       6.592       5.474       4.371       3.278       2.189       1.100      1.0893E-02
  10    9.991       8.861       7.734       6.611       5.495       4.390       3.292       2.197       1.104      1.0931E-02

 HEAD WILL BE SAVED ON UNIT   51 AT END OF TIME STEP    7, STRESS PERIOD    3

 DRAWDOWN WILL BE SAVED ON UNIT   52 AT END OF TIME STEP    7, STRESS PERIOD    3
1
  VOLUMETRIC BUDGET FOR ENTIRE MODEL AT END OF TIME STEP    7, STRESS PERIOD   3
  ------------------------------------------------------------------------------

     CUMULATIVE VOLUMES      L**3       RATES FOR THIS TIME STEP      L**3/T
     ------------------                 ------------------------

           IN:                                      IN:
           ---                                      ---
             STORAGE =       25532.2363               STORAGE =          55.7790
       CONSTANT HEAD =           0.0000         CONSTANT HEAD =           0.0000
               WELLS =           0.0000                 WELLS =           0.0000
     HEAD DEP BOUNDS =       51989.6094       HEAD DEP BOUNDS =         581.2957

            TOTAL IN =       77521.8438              TOTAL IN =         637.0747

          OUT:                                     OUT:
          ----                                     ----
             STORAGE =           0.0000               STORAGE =           0.0000
       CONSTANT HEAD =           0.0000         CONSTANT HEAD =           0.0000
               WELLS =         700.0000                 WELLS =         100.0000
     HEAD DEP BOUNDS =       76841.1484       HEAD DEP BOUNDS =         537.2614

           TOTAL OUT =       77541.1484             TOTAL OUT =         637.2614

            IN - OUT =         -19.3047              IN - OUT =          -0.1866

 PERCENT DISCREPANCY =          -0.02     PERCENT DISCREPANCY =          -0.03






         TIME SUMMARY AT END OF TIME STEP    7 IN STRESS PERIOD    3
                    SECONDS     MINUTES      HOURS       DAYS        YEARS
                    -----------------------------------------------------------
   TIME STEP LENGTH  86400.      1440.0      24.000      1.0000     2.73785E-03
 STRESS PERIOD TIME 6.04800E+05  10080.      168.00      7.0000     1.91650E-02
         TOTAL TIME 9.33120E+06 1.55520E+05  2592.0      108.00     0.29569    
1

 SOLVING FOR HEAD 
     3 ITERATIONS FOR TIME STEP   8 IN STRESS PERIOD    3

 OUTPUT CONTROL FOR STRESS PERIOD    3   TIME STEP    8
    SAVE HEAD FOR ALL LAYERS
    SAVE DRAWDOWN FOR ALL LAYERS
    SAVE BUDGET
    PRINT HEAD FOR ALL LAYERS
    PRINT BUDGET
 UBDSV1 SAVING "         STORAGE" ON UNIT  53 AT TIME STEP  8, STRESS PERIOD   3
 UBDSV2 SAVING "   CONSTANT HEAD" ON UNIT  53 AT TIME STEP  8, STRESS PERIOD   3
 UBDSV1 SAVING "FLOW RIGHT FACE " ON UNIT  53 AT TIME STEP  8, STRESS PERIOD   3
 UBDSV1 SAVING "FLOW FRONT FACE " ON UNIT  53 AT TIME STEP  8, STRESS PERIOD   3
1
              HEAD IN LAYER   1 AT END OF TIME STEP   8 IN STRESS PERIOD    3
  ---------------------------------------------------------------------------

            1           2           3           4           5           6           7           8           9          10
 ........................................................................................................................
   1    9.990       8.839       7.691       6.552       5.429       4.328       3.243       2.165       1.088      1.0773E-02
   2    9.990       8.830       7.672       6.520       5.389       4.296       3.222       2.153       1.083      1.0722E-02
   3    9.990       8.813       7.632       6.450       5.294       4.225       3.180       2.132       1.074      1.0635E-02
   4    9.990       8.793       7.580       6.338       5.092       4.112       3.126       2.108       1.065      1.0544E-02
   5    9.990       8.782       7.542       6.210       4.601       3.984       3.088       2.095       1.061      1.0503E-02
   6    9.990       8.795       7.583       6.341       5.096       4.116       3.130       2.110       1.066      1.0556E-02
   7    9.990       8.817       7.638       6.459       5.303       4.234       3.188       2.137       1.077      1.0661E-02
   8    9.990       8.837       7.683       6.536       5.407       4.312       3.236       2.163       1.088      1.0770E-02
   9    9.990       8.850       7.712       6.580       5.460       4.358       3.267       2.181       1.096      1.0851E-02
  10    9.991       8.857       7.726       6.600       5.483       4.378       3.282       2.190       1.100      1.0893E-02

 HEAD WILL BE SAVED ON UNIT   51 AT END OF TIME STEP    8, STRESS PERIOD    3

 DRAWDOWN WILL BE SAVED ON UNIT   52 AT END OF TIME STEP    8, STRESS PERIOD    3
1
  VOLUMETRIC BUDGET FOR ENTIRE MODEL AT END OF TIME STEP    8, STRESS PERIOD   3
  ------------------------------------------------------------------------------

     CUMULATIVE VOLUMES      L**3       RATES FOR THIS TIME STEP      L**3/T
     ------------------                 ------------------------

           IN:                                      IN:
           ---                                      ---
             STORAGE =       25582.1543               STORAGE =          49.9174
       CONSTANT HEAD =           0.0000         CONSTANT HEAD =           0.0000
               WELLS =           0.0000                 WELLS =           0.0000
     HEAD DEP BOUNDS =       52574.0625       HEAD DEP BOUNDS =         584.4536

            TOTAL IN =       78156.2188              TOTAL IN =         634.3710

          OUT:                                     OUT:
          ----                                     ----
             STORAGE =           0.0000               STORAGE =           0.0000
       CONSTANT HEAD =           0.0000         CONSTANT HEAD =           0.0000
               WELLS =         800.0000                 WELLS =         100.0000
     HEAD DEP BOUNDS =       77375.6875       HEAD DEP BOUNDS =         534.5422

           TOTAL OUT =       78175.6875             TOTAL OUT =         634.5422

            IN - OUT =         -19.4688              IN - OUT =          -0.1711

 PERCENT DISCREPANCY =          -0.02     PERCENT DISCREPANCY =          -0.03






         TIME SUMMARY AT END OF TIME STEP    8 IN STRESS PERIOD    3
                    SECONDS     MINUTES      HOURS       DAYS        YEARS
                    -----------------------------------------------------------
   TIME STEP LENGTH  86400.      1440.0      24.000      1.0000     2.73785E-03
 STRESS PERIOD TIME 6.91200E+05  11520.      192.00      8.0000     2.19028E-02
         TOTAL TIME 9.41760E+06 1.56960E+05  2616.0      109.00     0.29843    
1

 SOLVING FOR HEAD 
     3 ITERATIONS FOR TIME STEP   9 IN STRESS PERIOD    3

 OUTPUT CONTROL FOR STRESS PERIOD    3   TIME STEP    9
    SAVE HEAD FOR ALL LAYERS
    SAVE DRAWDOWN FOR ALL LAYERS
    SAVE BUDGET
    PRINT HEAD FOR ALL LAYERS
    PRINT BUDGET
 UBDSV1 SAVING "         STORAGE" ON UNIT  53 AT TIME STEP  9, STRESS PERIOD   3
 UBDSV2 SAVING "   CONSTANT HEAD" ON UNIT  53 AT TIME STEP  9, STRESS PERIOD   3
 UBDSV1 SAVING "FLOW RIGHT FACE " ON UNIT  53 AT TIME STEP  9, STRESS PERIOD   3
 UBDSV1 SAVING "FLOW FRONT FACE " ON UNIT  53 AT TIME STEP  9, STRESS PERIOD   3
1
              HEAD IN LAYER   1 AT END OF TIME STEP   9 IN STRESS PERIOD    3
  ---------------------------------------------------------------------------

            1           2           3           4           5           6           7           8           9          10
 ........................................................................................................................
   1    9.990       8.834       7.681       6.538       5.413       4.313       3.230       2.155       1.083      1.0722E-02
   2    9.990       8.824       7.660       6.505       5.373       4.279       3.208       2.143       1.078      1.0670E-02
   3    9.990       8.807       7.620       6.435       5.277       4.208       3.166       2.121       1.068      1.0580E-02
   4    9.990       8.787       7.568       6.322       5.073       4.094       3.111       2.097       1.059      1.0487E-02
   5    9.990       8.775       7.530       6.194       4.583       3.967       3.073       2.084       1.055      1.0446E-02
   6    9.990       8.788       7.571       6.326       5.078       4.099       3.115       2.099       1.060      1.0501E-02
   7    9.990       8.811       7.628       6.445       5.288       4.219       3.175       2.127       1.072      1.0611E-02
   8    9.990       8.831       7.674       6.523       5.393       4.299       3.224       2.154       1.083      1.0725E-02
   9    9.990       8.846       7.704       6.569       5.448       4.345       3.256       2.173       1.092      1.0811E-02
  10    9.991       8.853       7.718       6.590       5.472       4.367       3.272       2.183       1.096      1.0856E-02

 HEAD WILL BE SAVED ON UNIT   51 AT END OF TIME STEP    9, STRESS PERIOD    3

 DRAWDOWN WILL BE SAVED ON UNIT   52 AT END OF TIME STEP    9, STRESS PERIOD    3
1
  VOLUMETRIC BUDGET FOR ENTIRE MODEL AT END OF TIME STEP    9, STRESS PERIOD   3
  ------------------------------------------------------------------------------

     CUMULATIVE VOLUMES      L**3       RATES FOR THIS TIME STEP      L**3/T
     ------------------                 ------------------------

           IN:                                      IN:
           ---                                      ---
             STORAGE =       25626.7852               STORAGE =          44.6311
       CONSTANT HEAD =           0.0000         CONSTANT HEAD =           0.0000
               WELLS =           0.0000                 WELLS =           0.0000
     HEAD DEP BOUNDS =       53161.3359       HEAD DEP BOUNDS =         587.2719

            TOTAL IN =       78788.1250              TOTAL IN =         631.9030

          OUT:                                     OUT:
          ----                                     ----
             STORAGE =           0.0000               STORAGE =           0.0000
       CONSTANT HEAD =           0.0000         CONSTANT HEAD =           0.0000
               WELLS =         900.0000                 WELLS =         100.0000
     HEAD DEP BOUNDS =       77907.7266       HEAD DEP BOUNDS =         532.0428

           TOTAL OUT =       78807.7266             TOTAL OUT =         632.0428

            IN - OUT =         -19.6016              IN - OUT =          -0.1399

 PERCENT DISCREPANCY =          -0.02     PERCENT DISCREPANCY =          -0.02






         TIME SUMMARY AT END OF TIME STEP    9 IN STRESS PERIOD    3
                    SECONDS     MINUTES      HOURS       DAYS        YEARS
                    -----------------------------------------------------------
   TIME STEP LENGTH  86400.      1440.0      24.000      1.0000     2.73785E-03
 STRESS PERIOD TIME 7.77600E+05  12960.      216.00      9.0000     2.46407E-02
         TOTAL TIME 9.50400E+06 1.58400E+05  2640.0      110.00     0.30116    
1

 SOLVING FOR HEAD 
     3 ITERATIONS FOR TIME STEP  10 IN STRESS PERIOD    3

 OUTPUT CONTROL FOR STRESS PERIOD    3   TIME STEP   10
    SAVE HEAD FOR ALL LAYERS
    SAVE DRAWDOWN FOR ALL LAYERS
    SAVE BUDGET
    PRINT HEAD FOR ALL LAYERS
    PRINT BUDGET
 UBDSV1 SAVING "         STORAGE" ON UNIT  53 AT TIME STEP 10, STRESS PERIOD   3
 UBDSV2 SAVING "   CONSTANT HEAD" ON UNIT  53 AT TIME STEP 10, STRESS PERIOD   3
 UBDSV1 SAVING "FLOW RIGHT FACE " ON UNIT  53 AT TIME STEP 10, STRESS PERIOD   3
 UBDSV1 SAVING "FLOW FRONT FACE " ON UNIT  53 AT TIME STEP 10, STRESS PERIOD   3
1
              HEAD IN LAYER   1 AT END OF TIME STEP  10 IN STRESS PERIOD    3
  ---------------------------------------------------------------------------

            1           2           3           4           5           6           7           8           9          10
 ........................................................................................................................
   1    9.990       8.829       7.671       6.525       5.399       4.298       3.217       2.146       1.078      1.0675E-02
   2    9.990       8.819       7.651       6.492       5.358       4.265       3.195       2.134       1.073      1.0621E-02
   3    9.990       8.801       7.610       6.421       5.261       4.193       3.153       2.112       1.063      1.0530E-02
   4    9.990       8.781       7.557       6.308       5.058       4.079       3.098       2.087       1.054      1.0436E-02
   5    9.990       8.770       7.520       6.180       4.567       3.951       3.060       2.074       1.050      1.0395E-02
   6    9.990       8.783       7.561       6.312       5.063       4.084       3.102       2.090       1.056      1.0452E-02
   7    9.990       8.806       7.618       6.432       5.274       4.205       3.163       2.119       1.067      1.0566E-02
   8    9.990       8.827       7.665       6.512       5.380       4.286       3.213       2.146       1.079      1.0684E-02
   9    9.990       8.842       7.696       6.559       5.436       4.334       3.246       2.166       1.088      1.0774E-02
  10    9.990       8.849       7.711       6.580       5.461       4.356       3.263       2.176       1.093      1.0821E-02

 HEAD WILL BE SAVED ON UNIT   51 AT END OF TIME STEP   10, STRESS PERIOD    3

 DRAWDOWN WILL BE SAVED ON UNIT   52 AT END OF TIME STEP   10, STRESS PERIOD    3
1
  VOLUMETRIC BUDGET FOR ENTIRE MODEL AT END OF TIME STEP   10, STRESS PERIOD   3
  ------------------------------------------------------------------------------

     CUMULATIVE VOLUMES      L**3       RATES FOR THIS TIME STEP      L**3/T
     ------------------                 ------------------------

           IN:                                      IN:
           ---                                      ---
             STORAGE =       25666.6680               STORAGE =          39.8837
       CONSTANT HEAD =           0.0000         CONSTANT HEAD =           0.0000
               WELLS =           0.0000                 WELLS =           0.0000
     HEAD DEP BOUNDS =       53751.0820       HEAD DEP BOUNDS =         589.7471

            TOTAL IN =       79417.7500              TOTAL IN =         629.6309

          OUT:                                     OUT:
          ----                                     ----
             STORAGE =           0.0000               STORAGE =           0.0000
       CONSTANT HEAD =           0.0000         CONSTANT HEAD =           0.0000
               WELLS =        1000.0000                 WELLS =         100.0000
     HEAD DEP BOUNDS =       78437.4922       HEAD DEP BOUNDS =         529.7661

           TOTAL OUT =       79437.4922             TOTAL OUT =         629.7661

            IN - OUT =         -19.7422              IN - OUT =          -0.1353

 PERCENT DISCREPANCY =          -0.02     PERCENT DISCREPANCY =          -0.02






         TIME SUMMARY AT END OF TIME STEP   10 IN STRESS PERIOD    3
                    SECONDS     MINUTES      HOURS       DAYS        YEARS
                    -----------------------------------------------------------
   TIME STEP LENGTH  86400.      1440.0      24.000      1.0000     2.73785E-03
 STRESS PERIOD TIME 8.64000E+05  14400.      240.00      10.000     2.73785E-02
         TOTAL TIME 9.59040E+06 1.59840E+05  2664.0      111.00     0.30390    
1

 SOLVING FOR HEAD 
     3 ITERATIONS FOR TIME STEP  11 IN STRESS PERIOD    3

 OUTPUT CONTROL FOR STRESS PERIOD    3   TIME STEP   11
    SAVE HEAD FOR ALL LAYERS
    SAVE DRAWDOWN FOR ALL LAYERS
    SAVE BUDGET
    PRINT HEAD FOR ALL LAYERS
    PRINT BUDGET
 UBDSV1 SAVING "         STORAGE" ON UNIT  53 AT TIME STEP 11, STRESS PERIOD   3
 UBDSV2 SAVING "   CONSTANT HEAD" ON UNIT  53 AT TIME STEP 11, STRESS PERIOD   3
 UBDSV1 SAVING "FLOW RIGHT FACE " ON UNIT  53 AT TIME STEP 11, STRESS PERIOD   3
 UBDSV1 SAVING "FLOW FRONT FACE " ON UNIT  53 AT TIME STEP 11, STRESS PERIOD   3
1
              HEAD IN LAYER   1 AT END OF TIME STEP  11 IN STRESS PERIOD    3
  ---------------------------------------------------------------------------

            1           2           3           4           5           6           7           8           9          10
 ........................................................................................................................
   1    9.990       8.824       7.663       6.513       5.385       4.285       3.206       2.138       1.074      1.0631E-02
   2    9.990       8.814       7.642       6.480       5.345       4.252       3.184       2.125       1.068      1.0577E-02
   3    9.990       8.797       7.601       6.409       5.248       4.180       3.141       2.103       1.059      1.0485E-02
   4    9.990       8.776       7.548       6.295       5.044       4.065       3.086       2.078       1.049      1.0390E-02
   5    9.990       8.765       7.511       6.168       4.553       3.938       3.048       2.065       1.045      1.0350E-02
   6    9.990       8.778       7.552       6.301       5.050       4.071       3.091       2.082       1.051      1.0409E-02
   7    9.990       8.802       7.610       6.421       5.261       4.193       3.152       2.111       1.063      1.0525E-02
   8    9.990       8.823       7.658       6.502       5.369       4.275       3.203       2.139       1.075      1.0647E-02
   9    9.990       8.838       7.689       6.549       5.426       4.324       3.237       2.159       1.085      1.0739E-02
  10    9.990       8.845       7.704       6.571       5.451       4.346       3.254       2.170       1.090      1.0787E-02

 HEAD WILL BE SAVED ON UNIT   51 AT END OF TIME STEP   11, STRESS PERIOD    3

 DRAWDOWN WILL BE SAVED ON UNIT   52 AT END OF TIME STEP   11, STRESS PERIOD    3
1
  VOLUMETRIC BUDGET FOR ENTIRE MODEL AT END OF TIME STEP   11, STRESS PERIOD   3
  ------------------------------------------------------------------------------

     CUMULATIVE VOLUMES      L**3       RATES FOR THIS TIME STEP      L**3/T
     ------------------                 ------------------------

           IN:                                      IN:
           ---                                      ---
             STORAGE =       25702.2988               STORAGE =          35.6313
       CONSTANT HEAD =           0.0000         CONSTANT HEAD =           0.0000
               WELLS =           0.0000                 WELLS =           0.0000
     HEAD DEP BOUNDS =       54343.0391       HEAD DEP BOUNDS =         591.9589

            TOTAL IN =       80045.3359              TOTAL IN =         627.5902

          OUT:                                     OUT:
          ----                                     ----
             STORAGE =           0.0000               STORAGE =           0.0000
       CONSTANT HEAD =           0.0000         CONSTANT HEAD =           0.0000
               WELLS =        1100.0000                 WELLS =         100.0000
     HEAD DEP BOUNDS =       78965.1953       HEAD DEP BOUNDS =         527.7043

           TOTAL OUT =       80065.1953             TOTAL OUT =         627.7043

            IN - OUT =         -19.8594              IN - OUT =          -0.1141

 PERCENT DISCREPANCY =          -0.02     PERCENT DISCREPANCY =          -0.02






         TIME SUMMARY AT END OF TIME STEP   11 IN STRESS PERIOD    3
                    SECONDS     MINUTES      HOURS       DAYS        YEARS
                    -----------------------------------------------------------
   TIME STEP LENGTH  86400.      1440.0      24.000      1.0000     2.73785E-03
 STRESS PERIOD TIME 9.50400E+05  15840.      264.00      11.000     3.01164E-02
         TOTAL TIME 9.67680E+06 1.61280E+05  2688.0      112.00     0.30664    
1

 SOLVING FOR HEAD 
     3 ITERATIONS FOR TIME STEP  12 IN STRESS PERIOD    3

 OUTPUT CONTROL FOR STRESS PERIOD    3   TIME STEP   12
    SAVE HEAD FOR ALL LAYERS
    SAVE DRAWDOWN FOR ALL LAYERS
    SAVE BUDGET
    PRINT HEAD FOR ALL LAYERS
    PRINT BUDGET
 UBDSV1 SAVING "         STORAGE" ON UNIT  53 AT TIME STEP 12, STRESS PERIOD   3
 UBDSV2 SAVING "   CONSTANT HEAD" ON UNIT  53 AT TIME STEP 12, STRESS PERIOD   3
 UBDSV1 SAVING "FLOW RIGHT FACE " ON UNIT  53 AT TIME STEP 12, STRESS PERIOD   3
 UBDSV1 SAVING "FLOW FRONT FACE " ON UNIT  53 AT TIME STEP 12, STRESS PERIOD   3
1
              HEAD IN LAYER   1 AT END OF TIME STEP  12 IN STRESS PERIOD    3
  ---------------------------------------------------------------------------

            1           2           3           4           5           6           7           8           9          10
 ........................................................................................................................
   1    9.990       8.820       7.655       6.503       5.374       4.274       3.196       2.130       1.070      1.0592E-02
   2    9.990       8.810       7.634       6.470       5.333       4.240       3.174       2.118       1.064      1.0537E-02
   3    9.990       8.792       7.593       6.398       5.236       4.168       3.131       2.095       1.055      1.0445E-02
   4    9.990       8.772       7.540       6.285       5.032       4.053       3.076       2.071       1.045      1.0350E-02
   5    9.990       8.761       7.503       6.158       4.542       3.926       3.038       2.058       1.041      1.0310E-02
   6    9.990       8.774       7.545       6.291       5.039       4.060       3.081       2.074       1.047      1.0371E-02
   7    9.990       8.798       7.603       6.412       5.251       4.182       3.143       2.104       1.059      1.0489E-02
   8    9.990       8.819       7.651       6.493       5.359       4.265       3.195       2.133       1.072      1.0612E-02
   9    9.990       8.834       7.683       6.541       5.416       4.314       3.229       2.153       1.081      1.0707E-02
  10    9.990       8.842       7.698       6.563       5.442       4.337       3.246       2.164       1.086      1.0756E-02

 HEAD WILL BE SAVED ON UNIT   51 AT END OF TIME STEP   12, STRESS PERIOD    3

 DRAWDOWN WILL BE SAVED ON UNIT   52 AT END OF TIME STEP   12, STRESS PERIOD    3
1
  VOLUMETRIC BUDGET FOR ENTIRE MODEL AT END OF TIME STEP   12, STRESS PERIOD   3
  ------------------------------------------------------------------------------

     CUMULATIVE VOLUMES      L**3       RATES FOR THIS TIME STEP      L**3/T
     ------------------                 ------------------------

           IN:                                      IN:
           ---                                      ---
             STORAGE =       25734.1250               STORAGE =          31.8270
       CONSTANT HEAD =           0.0000         CONSTANT HEAD =           0.0000
               WELLS =           0.0000                 WELLS =           0.0000
     HEAD DEP BOUNDS =       54936.9492       HEAD DEP BOUNDS =         593.9098

            TOTAL IN =       80671.0781              TOTAL IN =         625.7368

          OUT:                                     OUT:
          ----                                     ----
             STORAGE =           0.0000               STORAGE =           0.0000
       CONSTANT HEAD =           0.0000         CONSTANT HEAD =           0.0000
               WELLS =        1200.0000                 WELLS =         100.0000
     HEAD DEP BOUNDS =       79491.0391       HEAD DEP BOUNDS =         525.8446

           TOTAL OUT =       80691.0391             TOTAL OUT =         625.8446

            IN - OUT =         -19.9609              IN - OUT =          -0.1078

 PERCENT DISCREPANCY =          -0.02     PERCENT DISCREPANCY =          -0.02






         TIME SUMMARY AT END OF TIME STEP   12 IN STRESS PERIOD    3
                    SECONDS     MINUTES      HOURS       DAYS        YEARS
                    -----------------------------------------------------------
   TIME STEP LENGTH  86400.      1440.0      24.000      1.0000     2.73785E-03
 STRESS PERIOD TIME 1.03680E+06  17280.      288.00      12.000     3.28542E-02
         TOTAL TIME 9.76320E+06 1.62720E+05  2712.0      113.00     0.30938    
1

 SOLVING FOR HEAD 
     3 ITERATIONS FOR TIME STEP  13 IN STRESS PERIOD    3

 OUTPUT CONTROL FOR STRESS PERIOD    3   TIME STEP   13
    SAVE HEAD FOR ALL LAYERS
    SAVE DRAWDOWN FOR ALL LAYERS
    SAVE BUDGET
    PRINT HEAD FOR ALL LAYERS
    PRINT BUDGET
 UBDSV1 SAVING "         STORAGE" ON UNIT  53 AT TIME STEP 13, STRESS PERIOD   3
 UBDSV2 SAVING "   CONSTANT HEAD" ON UNIT  53 AT TIME STEP 13, STRESS PERIOD   3
 UBDSV1 SAVING "FLOW RIGHT FACE " ON UNIT  53 AT TIME STEP 13, STRESS PERIOD   3
 UBDSV1 SAVING "FLOW FRONT FACE " ON UNIT  53 AT TIME STEP 13, STRESS PERIOD   3
1
              HEAD IN LAYER   1 AT END OF TIME STEP  13 IN STRESS PERIOD    3
  ---------------------------------------------------------------------------

            1           2           3           4           5           6           7           8           9          10
 ........................................................................................................................
   1    9.990       8.816       7.648       6.494       5.363       4.263       3.187       2.124       1.066      1.0556E-02
   2    9.990       8.806       7.627       6.460       5.322       4.230       3.165       2.111       1.061      1.0502E-02
   3    9.990       8.789       7.586       6.389       5.225       4.157       3.122       2.089       1.051      1.0409E-02
   4    9.990       8.768       7.533       6.275       5.021       4.043       3.067       2.064       1.042      1.0314E-02
   5    9.990       8.757       7.496       6.148       4.531       3.916       3.029       2.051       1.038      1.0275E-02
   6    9.990       8.771       7.538       6.282       5.028       4.050       3.072       2.068       1.044      1.0336E-02
   7    9.990       8.794       7.597       6.403       5.241       4.173       3.135       2.098       1.056      1.0456E-02
   8    9.990       8.816       7.645       6.485       5.350       4.256       3.187       2.127       1.069      1.0581E-02
   9    9.990       8.831       7.677       6.533       5.408       4.306       3.222       2.148       1.078      1.0677E-02
  10    9.990       8.839       7.692       6.556       5.433       4.329       3.239       2.158       1.083      1.0727E-02

 HEAD WILL BE SAVED ON UNIT   51 AT END OF TIME STEP   13, STRESS PERIOD    3

 DRAWDOWN WILL BE SAVED ON UNIT   52 AT END OF TIME STEP   13, STRESS PERIOD    3
1
  VOLUMETRIC BUDGET FOR ENTIRE MODEL AT END OF TIME STEP   13, STRESS PERIOD   3
  ------------------------------------------------------------------------------

     CUMULATIVE VOLUMES      L**3       RATES FOR THIS TIME STEP      L**3/T
     ------------------                 ------------------------

           IN:                                      IN:
           ---                                      ---
             STORAGE =       25762.5508               STORAGE =          28.4260
       CONSTANT HEAD =           0.0000         CONSTANT HEAD =           0.0000
               WELLS =           0.0000                 WELLS =           0.0000
     HEAD DEP BOUNDS =       55532.6016       HEAD DEP BOUNDS =         595.6523

            TOTAL IN =       81295.1562              TOTAL IN =         624.0782

          OUT:                                     OUT:
          ----                                     ----
             STORAGE =           0.0000               STORAGE =           0.0000
       CONSTANT HEAD =           0.0000         CONSTANT HEAD =           0.0000
               WELLS =        1300.0000                 WELLS =         100.0000
     HEAD DEP BOUNDS =       80015.2109       HEAD DEP BOUNDS =         524.1718

           TOTAL OUT =       81315.2109             TOTAL OUT =         624.1718

            IN - OUT =         -20.0547              IN - OUT =      -9.3506E-02

 PERCENT DISCREPANCY =          -0.02     PERCENT DISCREPANCY =          -0.01






         TIME SUMMARY AT END OF TIME STEP   13 IN STRESS PERIOD    3
                    SECONDS     MINUTES      HOURS       DAYS        YEARS
                    -----------------------------------------------------------
   TIME STEP LENGTH  86400.      1440.0      24.000      1.0000     2.73785E-03
 STRESS PERIOD TIME 1.12320E+06  18720.      312.00      13.000     3.55921E-02
         TOTAL TIME 9.84960E+06 1.64160E+05  2736.0      114.00     0.31211    
1

 SOLVING FOR HEAD 
     3 ITERATIONS FOR TIME STEP  14 IN STRESS PERIOD    3

 OUTPUT CONTROL FOR STRESS PERIOD    3   TIME STEP   14
    SAVE HEAD FOR ALL LAYERS
    SAVE DRAWDOWN FOR ALL LAYERS
    SAVE BUDGET
    PRINT HEAD FOR ALL LAYERS
    PRINT BUDGET
 UBDSV1 SAVING "         STORAGE" ON UNIT  53 AT TIME STEP 14, STRESS PERIOD   3
 UBDSV2 SAVING "   CONSTANT HEAD" ON UNIT  53 AT TIME STEP 14, STRESS PERIOD   3
 UBDSV1 SAVING "FLOW RIGHT FACE " ON UNIT  53 AT TIME STEP 14, STRESS PERIOD   3
 UBDSV1 SAVING "FLOW FRONT FACE " ON UNIT  53 AT TIME STEP 14, STRESS PERIOD   3
1
              HEAD IN LAYER   1 AT END OF TIME STEP  14 IN STRESS PERIOD    3
  ---------------------------------------------------------------------------

            1           2           3           4           5           6           7           8           9          10
 ........................................................................................................................
   1    9.990       8.813       7.642       6.485       5.354       4.254       3.179       2.118       1.063      1.0524E-02
   2    9.990       8.803       7.621       6.452       5.313       4.220       3.156       2.105       1.057      1.0470E-02
   3    9.990       8.785       7.580       6.381       5.216       4.148       3.113       2.083       1.048      1.0377E-02
   4    9.990       8.765       7.527       6.267       5.012       4.034       3.058       2.058       1.038      1.0282E-02
   5    9.990       8.754       7.490       6.140       4.522       3.907       3.021       2.045       1.034      1.0244E-02
   6    9.990       8.767       7.532       6.274       5.019       4.041       3.065       2.062       1.041      1.0306E-02
   7    9.990       8.791       7.591       6.396       5.232       4.164       3.127       2.092       1.053      1.0427E-02
   8    9.990       8.813       7.640       6.478       5.341       4.248       3.180       2.121       1.066      1.0553E-02
   9    9.990       8.829       7.672       6.526       5.400       4.298       3.215       2.143       1.076      1.0650E-02
  10    9.990       8.836       7.687       6.549       5.426       4.321       3.232       2.153       1.081      1.0701E-02

 HEAD WILL BE SAVED ON UNIT   51 AT END OF TIME STEP   14, STRESS PERIOD    3

 DRAWDOWN WILL BE SAVED ON UNIT   52 AT END OF TIME STEP   14, STRESS PERIOD    3
1
  VOLUMETRIC BUDGET FOR ENTIRE MODEL AT END OF TIME STEP   14, STRESS PERIOD   3
  ------------------------------------------------------------------------------

     CUMULATIVE VOLUMES      L**3       RATES FOR THIS TIME STEP      L**3/T
     ------------------                 ------------------------

           IN:                                      IN:
           ---                                      ---
             STORAGE =       25787.9375               STORAGE =          25.3874
       CONSTANT HEAD =           0.0000         CONSTANT HEAD =           0.0000
               WELLS =           0.0000                 WELLS =           0.0000
     HEAD DEP BOUNDS =       56129.7969       HEAD DEP BOUNDS =         597.1965

            TOTAL IN =       81917.7344              TOTAL IN =         622.5839

          OUT:                                     OUT:
          ----                                     ----
             STORAGE =           0.0000               STORAGE =           0.0000
       CONSTANT HEAD =           0.0000         CONSTANT HEAD =           0.0000
               WELLS =        1400.0000                 WELLS =         100.0000
     HEAD DEP BOUNDS =       80537.8828       HEAD DEP BOUNDS =         522.6699

           TOTAL OUT =       81937.8828             TOTAL OUT =         622.6699

            IN - OUT =         -20.1484              IN - OUT =      -8.5938E-02

 PERCENT DISCREPANCY =          -0.02     PERCENT DISCREPANCY =          -0.01






         TIME SUMMARY AT END OF TIME STEP   14 IN STRESS PERIOD    3
                    SECONDS     MINUTES      HOURS       DAYS        YEARS
                    -----------------------------------------------------------
   TIME STEP LENGTH  86400.      1440.0      24.000      1.0000     2.73785E-03
 STRESS PERIOD TIME 1.20960E+06  20160.      336.00      14.000     3.83299E-02
         TOTAL TIME 9.93600E+06 1.65600E+05  2760.0      115.00     0.31485    
1

 SOLVING FOR HEAD 
     3 ITERATIONS FOR TIME STEP  15 IN STRESS PERIOD    3

 OUTPUT CONTROL FOR STRESS PERIOD    3   TIME STEP   15
    SAVE HEAD FOR ALL LAYERS
    SAVE DRAWDOWN FOR ALL LAYERS
    SAVE BUDGET
    PRINT HEAD FOR ALL LAYERS
    PRINT BUDGET
 UBDSV1 SAVING "         STORAGE" ON UNIT  53 AT TIME STEP 15, STRESS PERIOD   3
 UBDSV2 SAVING "   CONSTANT HEAD" ON UNIT  53 AT TIME STEP 15, STRESS PERIOD   3
 UBDSV1 SAVING "FLOW RIGHT FACE " ON UNIT  53 AT TIME STEP 15, STRESS PERIOD   3
 UBDSV1 SAVING "FLOW FRONT FACE " ON UNIT  53 AT TIME STEP 15, STRESS PERIOD   3
1
              HEAD IN LAYER   1 AT END OF TIME STEP  15 IN STRESS PERIOD    3
  ---------------------------------------------------------------------------

            1           2           3           4           5           6           7           8           9          10
 ........................................................................................................................
   1    9.990       8.810       7.636       6.478       5.345       4.246       3.171       2.112       1.060      1.0495E-02
   2    9.990       8.800       7.615       6.445       5.304       4.212       3.149       2.100       1.055      1.0441E-02
   3    9.990       8.782       7.574       6.373       5.207       4.140       3.106       2.077       1.045      1.0348E-02
   4    9.990       8.762       7.521       6.260       5.004       4.025       3.051       2.052       1.036      1.0254E-02
   5    9.990       8.751       7.484       6.133       4.514       3.898       3.014       2.040       1.032      1.0216E-02
   6    9.990       8.765       7.527       6.267       5.012       4.033       3.058       2.057       1.038      1.0279E-02
   7    9.990       8.788       7.586       6.389       5.225       4.157       3.120       2.087       1.050      1.0401E-02
   8    9.990       8.811       7.635       6.471       5.334       4.240       3.173       2.117       1.063      1.0528E-02
   9    9.990       8.826       7.667       6.520       5.393       4.291       3.208       2.138       1.073      1.0626E-02
  10    9.990       8.834       7.683       6.543       5.419       4.314       3.226       2.149       1.078      1.0677E-02

 HEAD WILL BE SAVED ON UNIT   51 AT END OF TIME STEP   15, STRESS PERIOD    3

 DRAWDOWN WILL BE SAVED ON UNIT   52 AT END OF TIME STEP   15, STRESS PERIOD    3
1
  VOLUMETRIC BUDGET FOR ENTIRE MODEL AT END OF TIME STEP   15, STRESS PERIOD   3
  ------------------------------------------------------------------------------

     CUMULATIVE VOLUMES      L**3       RATES FOR THIS TIME STEP      L**3/T
     ------------------                 ------------------------

           IN:                                      IN:
           ---                                      ---
             STORAGE =       25810.6094               STORAGE =          22.6728
       CONSTANT HEAD =           0.0000         CONSTANT HEAD =           0.0000
               WELLS =           0.0000                 WELLS =           0.0000
     HEAD DEP BOUNDS =       56728.3789       HEAD DEP BOUNDS =         598.5802

            TOTAL IN =       82538.9844              TOTAL IN =         621.2530

          OUT:                                     OUT:
          ----                                     ----
             STORAGE =           0.0000               STORAGE =           0.0000
       CONSTANT HEAD =           0.0000         CONSTANT HEAD =           0.0000
               WELLS =        1500.0000                 WELLS =         100.0000
     HEAD DEP BOUNDS =       81059.2031       HEAD DEP BOUNDS =         521.3234

           TOTAL OUT =       82559.2031             TOTAL OUT =         621.3234

            IN - OUT =         -20.2188              IN - OUT =      -7.0374E-02

 PERCENT DISCREPANCY =          -0.02     PERCENT DISCREPANCY =          -0.01






         TIME SUMMARY AT END OF TIME STEP   15 IN STRESS PERIOD    3
                    SECONDS     MINUTES      HOURS       DAYS        YEARS
                    -----------------------------------------------------------
   TIME STEP LENGTH  86400.      1440.0      24.000      1.0000     2.73785E-03
 STRESS PERIOD TIME 1.29600E+06  21600.      360.00      15.000     4.10678E-02
         TOTAL TIME 1.00224E+07 1.67040E+05  2784.0      116.00     0.31759    
1

 SOLVING FOR HEAD 
     3 ITERATIONS FOR TIME STEP  16 IN STRESS PERIOD    3

 OUTPUT CONTROL FOR STRESS PERIOD    3   TIME STEP   16
    SAVE HEAD FOR ALL LAYERS
    SAVE DRAWDOWN FOR ALL LAYERS
    SAVE BUDGET
    PRINT HEAD FOR ALL LAYERS
    PRINT BUDGET
 UBDSV1 SAVING "         STORAGE" ON UNIT  53 AT TIME STEP 16, STRESS PERIOD   3
 UBDSV2 SAVING "   CONSTANT HEAD" ON UNIT  53 AT TIME STEP 16, STRESS PERIOD   3
 UBDSV1 SAVING "FLOW RIGHT FACE " ON UNIT  53 AT TIME STEP 16, STRESS PERIOD   3
 UBDSV1 SAVING "FLOW FRONT FACE " ON UNIT  53 AT TIME STEP 16, STRESS PERIOD   3
1
              HEAD IN LAYER   1 AT END OF TIME STEP  16 IN STRESS PERIOD    3
  ---------------------------------------------------------------------------

            1           2           3           4           5           6           7           8           9          10
 ........................................................................................................................
   1    9.990       8.807       7.631       6.471       5.338       4.238       3.165       2.107       1.057      1.0470E-02
   2    9.990       8.797       7.610       6.438       5.297       4.204       3.143       2.095       1.052      1.0415E-02
   3    9.990       8.780       7.570       6.367       5.200       4.132       3.100       2.072       1.043      1.0323E-02
   4    9.990       8.759       7.517       6.253       4.996       4.018       3.045       2.048       1.033      1.0229E-02
   5    9.990       8.748       7.480       6.127       4.506       3.891       3.007       2.035       1.029      1.0191E-02
   6    9.990       8.762       7.522       6.261       5.004       4.026       3.052       2.053       1.036      1.0255E-02
   7    9.990       8.786       7.582       6.383       5.218       4.150       3.114       2.083       1.048      1.0378E-02
   8    9.990       8.808       7.631       6.465       5.327       4.234       3.167       2.112       1.061      1.0506E-02
   9    9.990       8.824       7.663       6.514       5.386       4.284       3.203       2.134       1.071      1.0604E-02
  10    9.990       8.832       7.679       6.537       5.412       4.308       3.220       2.145       1.076      1.0655E-02

 HEAD WILL BE SAVED ON UNIT   51 AT END OF TIME STEP   16, STRESS PERIOD    3

 DRAWDOWN WILL BE SAVED ON UNIT   52 AT END OF TIME STEP   16, STRESS PERIOD    3
1
  VOLUMETRIC BUDGET FOR ENTIRE MODEL AT END OF TIME STEP   16, STRESS PERIOD   3
  ------------------------------------------------------------------------------

     CUMULATIVE VOLUMES      L**3       RATES FOR THIS TIME STEP      L**3/T
     ------------------                 ------------------------

           IN:                                      IN:
           ---                                      ---
             STORAGE =       25830.8574               STORAGE =          20.2478
       CONSTANT HEAD =           0.0000         CONSTANT HEAD =           0.0000
               WELLS =           0.0000                 WELLS =           0.0000
     HEAD DEP BOUNDS =       57328.1836       HEAD DEP BOUNDS =         599.8033

            TOTAL IN =       83159.0391              TOTAL IN =         620.0511

          OUT:                                     OUT:
          ----                                     ----
             STORAGE =           0.0000               STORAGE =           0.0000
       CONSTANT HEAD =           0.0000         CONSTANT HEAD =           0.0000
               WELLS =        1600.0000                 WELLS =         100.0000
     HEAD DEP BOUNDS =       81579.3203       HEAD DEP BOUNDS =         520.1174

           TOTAL OUT =       83179.3203             TOTAL OUT =         620.1174

            IN - OUT =         -20.2812              IN - OUT =      -6.6284E-02

 PERCENT DISCREPANCY =          -0.02     PERCENT DISCREPANCY =          -0.01






         TIME SUMMARY AT END OF TIME STEP   16 IN STRESS PERIOD    3
                    SECONDS     MINUTES      HOURS       DAYS        YEARS
                    -----------------------------------------------------------
   TIME STEP LENGTH  86400.      1440.0      24.000      1.0000     2.73785E-03
 STRESS PERIOD TIME 1.38240E+06  23040.      384.00      16.000     4.38056E-02
         TOTAL TIME 1.01088E+07 1.68480E+05  2808.0      117.00     0.32033    
1

 SOLVING FOR HEAD 
     3 ITERATIONS FOR TIME STEP  17 IN STRESS PERIOD    3

 OUTPUT CONTROL FOR STRESS PERIOD    3   TIME STEP   17
    SAVE HEAD FOR ALL LAYERS
    SAVE DRAWDOWN FOR ALL LAYERS
    SAVE BUDGET
    PRINT HEAD FOR ALL LAYERS
    PRINT BUDGET
 UBDSV1 SAVING "         STORAGE" ON UNIT  53 AT TIME STEP 17, STRESS PERIOD   3
 UBDSV2 SAVING "   CONSTANT HEAD" ON UNIT  53 AT TIME STEP 17, STRESS PERIOD   3
 UBDSV1 SAVING "FLOW RIGHT FACE " ON UNIT  53 AT TIME STEP 17, STRESS PERIOD   3
 UBDSV1 SAVING "FLOW FRONT FACE " ON UNIT  53 AT TIME STEP 17, STRESS PERIOD   3
1
              HEAD IN LAYER   1 AT END OF TIME STEP  17 IN STRESS PERIOD    3
  ---------------------------------------------------------------------------

            1           2           3           4           5           6           7           8           9          10
 ........................................................................................................................
   1    9.990       8.805       7.627       6.465       5.331       4.232       3.159       2.103       1.055      1.0447E-02
   2    9.990       8.795       7.606       6.432       5.290       4.198       3.137       2.090       1.050      1.0392E-02
   3    9.990       8.777       7.565       6.361       5.193       4.126       3.094       2.068       1.040      1.0300E-02
   4    9.990       8.757       7.512       6.247       4.990       4.011       3.039       2.043       1.031      1.0206E-02
   5    9.990       8.746       7.475       6.121       4.500       3.885       3.002       2.031       1.027      1.0169E-02
   6    9.990       8.760       7.518       6.255       4.998       4.020       3.046       2.048       1.033      1.0233E-02
   7    9.990       8.784       7.577       6.377       5.212       4.144       3.109       2.079       1.046      1.0357E-02
   8    9.990       8.806       7.627       6.460       5.321       4.228       3.162       2.108       1.059      1.0485E-02
   9    9.990       8.822       7.659       6.509       5.380       4.278       3.198       2.130       1.069      1.0584E-02
  10    9.990       8.830       7.675       6.532       5.407       4.302       3.215       2.141       1.074      1.0636E-02

 HEAD WILL BE SAVED ON UNIT   51 AT END OF TIME STEP   17, STRESS PERIOD    3

 DRAWDOWN WILL BE SAVED ON UNIT   52 AT END OF TIME STEP   17, STRESS PERIOD    3
1
  VOLUMETRIC BUDGET FOR ENTIRE MODEL AT END OF TIME STEP   17, STRESS PERIOD   3
  ------------------------------------------------------------------------------

     CUMULATIVE VOLUMES      L**3       RATES FOR THIS TIME STEP      L**3/T
     ------------------                 ------------------------

           IN:                                      IN:
           ---                                      ---
             STORAGE =       25848.9395               STORAGE =          18.0824
       CONSTANT HEAD =           0.0000         CONSTANT HEAD =           0.0000
               WELLS =           0.0000                 WELLS =           0.0000
     HEAD DEP BOUNDS =       57929.0742       HEAD DEP BOUNDS =         600.8903

            TOTAL IN =       83778.0156              TOTAL IN =         618.9727

          OUT:                                     OUT:
          ----                                     ----
             STORAGE =           0.0000               STORAGE =           0.0000
       CONSTANT HEAD =           0.0000         CONSTANT HEAD =           0.0000
               WELLS =        1700.0000                 WELLS =         100.0000
     HEAD DEP BOUNDS =       82098.3594       HEAD DEP BOUNDS =         519.0380

           TOTAL OUT =       83798.3594             TOTAL OUT =         619.0380

            IN - OUT =         -20.3438              IN - OUT =      -6.5247E-02

 PERCENT DISCREPANCY =          -0.02     PERCENT DISCREPANCY =          -0.01






         TIME SUMMARY AT END OF TIME STEP   17 IN STRESS PERIOD    3
                    SECONDS     MINUTES      HOURS       DAYS        YEARS
                    -----------------------------------------------------------
   TIME STEP LENGTH  86400.      1440.0      24.000      1.0000     2.73785E-03
 STRESS PERIOD TIME 1.46880E+06  24480.      408.00      17.000     4.65435E-02
         TOTAL TIME 1.01952E+07 1.69920E+05  2832.0      118.00     0.32307    
1

 SOLVING FOR HEAD 
     3 ITERATIONS FOR TIME STEP  18 IN STRESS PERIOD    3

 OUTPUT CONTROL FOR STRESS PERIOD    3   TIME STEP   18
    SAVE HEAD FOR ALL LAYERS
    SAVE DRAWDOWN FOR ALL LAYERS
    SAVE BUDGET
    PRINT HEAD FOR ALL LAYERS
    PRINT BUDGET
 UBDSV1 SAVING "         STORAGE" ON UNIT  53 AT TIME STEP 18, STRESS PERIOD   3
 UBDSV2 SAVING "   CONSTANT HEAD" ON UNIT  53 AT TIME STEP 18, STRESS PERIOD   3
 UBDSV1 SAVING "FLOW RIGHT FACE " ON UNIT  53 AT TIME STEP 18, STRESS PERIOD   3
 UBDSV1 SAVING "FLOW FRONT FACE " ON UNIT  53 AT TIME STEP 18, STRESS PERIOD   3
1
              HEAD IN LAYER   1 AT END OF TIME STEP  18 IN STRESS PERIOD    3
  ---------------------------------------------------------------------------

            1           2           3           4           5           6           7           8           9          10
 ........................................................................................................................
   1    9.990       8.803       7.623       6.460       5.325       4.226       3.154       2.099       1.053      1.0426E-02
   2    9.990       8.793       7.602       6.427       5.284       4.192       3.132       2.087       1.048      1.0372E-02
   3    9.990       8.775       7.561       6.356       5.187       4.120       3.089       2.064       1.038      1.0280E-02
   4    9.990       8.755       7.509       6.242       4.984       4.006       3.034       2.040       1.029      1.0186E-02
   5    9.990       8.744       7.472       6.116       4.494       3.879       2.997       2.027       1.025      1.0149E-02
   6    9.990       8.758       7.514       6.250       4.993       4.014       3.041       2.045       1.031      1.0214E-02
   7    9.990       8.782       7.574       6.373       5.206       4.138       3.104       2.075       1.044      1.0338E-02
   8    9.990       8.804       7.623       6.455       5.316       4.223       3.157       2.105       1.057      1.0467E-02
   9    9.990       8.820       7.656       6.504       5.375       4.273       3.193       2.127       1.067      1.0566E-02
  10    9.990       8.828       7.671       6.527       5.402       4.297       3.211       2.138       1.072      1.0618E-02

 HEAD WILL BE SAVED ON UNIT   51 AT END OF TIME STEP   18, STRESS PERIOD    3

 DRAWDOWN WILL BE SAVED ON UNIT   52 AT END OF TIME STEP   18, STRESS PERIOD    3
1
  VOLUMETRIC BUDGET FOR ENTIRE MODEL AT END OF TIME STEP   18, STRESS PERIOD   3
  ------------------------------------------------------------------------------

     CUMULATIVE VOLUMES      L**3       RATES FOR THIS TIME STEP      L**3/T
     ------------------                 ------------------------

           IN:                                      IN:
           ---                                      ---
             STORAGE =       25865.0879               STORAGE =          16.1483
       CONSTANT HEAD =           0.0000         CONSTANT HEAD =           0.0000
               WELLS =           0.0000                 WELLS =           0.0000
     HEAD DEP BOUNDS =       58530.9414       HEAD DEP BOUNDS =         601.8678

            TOTAL IN =       84396.0312              TOTAL IN =         618.0161

          OUT:                                     OUT:
          ----                                     ----
             STORAGE =           0.0000               STORAGE =           0.0000
       CONSTANT HEAD =           0.0000         CONSTANT HEAD =           0.0000
               WELLS =        1800.0000                 WELLS =         100.0000
     HEAD DEP BOUNDS =       82616.4297       HEAD DEP BOUNDS =         518.0724

           TOTAL OUT =       84416.4297             TOTAL OUT =         618.0724

            IN - OUT =         -20.3984              IN - OUT =      -5.6335E-02

 PERCENT DISCREPANCY =          -0.02     PERCENT DISCREPANCY =          -0.01






         TIME SUMMARY AT END OF TIME STEP   18 IN STRESS PERIOD    3
                    SECONDS     MINUTES      HOURS       DAYS        YEARS
                    -----------------------------------------------------------
   TIME STEP LENGTH  86400.      1440.0      24.000      1.0000     2.73785E-03
 STRESS PERIOD TIME 1.55520E+06  25920.      432.00      18.000     4.92813E-02
         TOTAL TIME 1.02816E+07 1.71360E+05  2856.0      119.00     0.32580    
1

 SOLVING FOR HEAD 
     3 ITERATIONS FOR TIME STEP  19 IN STRESS PERIOD    3

 OUTPUT CONTROL FOR STRESS PERIOD    3   TIME STEP   19
    SAVE HEAD FOR ALL LAYERS
    SAVE DRAWDOWN FOR ALL LAYERS
    SAVE BUDGET
    PRINT HEAD FOR ALL LAYERS
    PRINT BUDGET
 UBDSV1 SAVING "         STORAGE" ON UNIT  53 AT TIME STEP 19, STRESS PERIOD   3
 UBDSV2 SAVING "   CONSTANT HEAD" ON UNIT  53 AT TIME STEP 19, STRESS PERIOD   3
 UBDSV1 SAVING "FLOW RIGHT FACE " ON UNIT  53 AT TIME STEP 19, STRESS PERIOD   3
 UBDSV1 SAVING "FLOW FRONT FACE " ON UNIT  53 AT TIME STEP 19, STRESS PERIOD   3
1
              HEAD IN LAYER   1 AT END OF TIME STEP  19 IN STRESS PERIOD    3
  ---------------------------------------------------------------------------

            1           2           3           4           5           6           7           8           9          10
 ........................................................................................................................
   1    9.990       8.801       7.619       6.455       5.320       4.220       3.149       2.096       1.051      1.0408E-02
   2    9.990       8.791       7.599       6.422       5.279       4.187       3.127       2.083       1.046      1.0354E-02
   3    9.990       8.773       7.558       6.351       5.182       4.115       3.084       2.061       1.036      1.0261E-02
   4    9.990       8.753       7.505       6.238       4.979       4.000       3.029       2.036       1.027      1.0168E-02
   5    9.990       8.742       7.468       6.111       4.489       3.874       2.992       2.024       1.023      1.0132E-02
   6    9.990       8.756       7.511       6.246       4.988       4.009       3.037       2.042       1.030      1.0196E-02
   7    9.990       8.780       7.571       6.368       5.201       4.133       3.100       2.072       1.042      1.0321E-02
   8    9.990       8.803       7.620       6.451       5.311       4.218       3.153       2.102       1.055      1.0450E-02
   9    9.990       8.818       7.653       6.500       5.370       4.269       3.189       2.124       1.066      1.0549E-02
  10    9.990       8.826       7.668       6.523       5.397       4.292       3.207       2.135       1.071      1.0602E-02

 HEAD WILL BE SAVED ON UNIT   51 AT END OF TIME STEP   19, STRESS PERIOD    3

 DRAWDOWN WILL BE SAVED ON UNIT   52 AT END OF TIME STEP   19, STRESS PERIOD    3
1
  VOLUMETRIC BUDGET FOR ENTIRE MODEL AT END OF TIME STEP   19, STRESS PERIOD   3
  ------------------------------------------------------------------------------

     CUMULATIVE VOLUMES      L**3       RATES FOR THIS TIME STEP      L**3/T
     ------------------                 ------------------------

           IN:                                      IN:
           ---                                      ---
             STORAGE =       25879.5098               STORAGE =          14.4212
       CONSTANT HEAD =           0.0000         CONSTANT HEAD =           0.0000
               WELLS =           0.0000                 WELLS =           0.0000
     HEAD DEP BOUNDS =       59133.6875       HEAD DEP BOUNDS =         602.7448

            TOTAL IN =       85013.1953              TOTAL IN =         617.1660

          OUT:                                     OUT:
          ----                                     ----
             STORAGE =           0.0000               STORAGE =           0.0000
       CONSTANT HEAD =           0.0000         CONSTANT HEAD =           0.0000
               WELLS =        1900.0000                 WELLS =         100.0000
     HEAD DEP BOUNDS =       83133.6406       HEAD DEP BOUNDS =         517.2091

           TOTAL OUT =       85033.6406             TOTAL OUT =         617.2091

            IN - OUT =         -20.4453              IN - OUT =      -4.3152E-02

 PERCENT DISCREPANCY =          -0.02     PERCENT DISCREPANCY =          -0.01






         TIME SUMMARY AT END OF TIME STEP   19 IN STRESS PERIOD    3
                    SECONDS     MINUTES      HOURS       DAYS        YEARS
                    -----------------------------------------------------------
   TIME STEP LENGTH  86400.      1440.0      24.000      1.0000     2.73785E-03
 STRESS PERIOD TIME 1.64160E+06  27360.      456.00      19.000     5.20192E-02
         TOTAL TIME 1.03680E+07 1.72800E+05  2880.0      120.00     0.32854    
1

 SOLVING FOR HEAD 
     3 ITERATIONS FOR TIME STEP  20 IN STRESS PERIOD    3

 OUTPUT CONTROL FOR STRESS PERIOD    3   TIME STEP   20
    SAVE HEAD FOR ALL LAYERS
    SAVE DRAWDOWN FOR ALL LAYERS
    SAVE BUDGET
    PRINT HEAD FOR ALL LAYERS
    PRINT BUDGET
 UBDSV1 SAVING "         STORAGE" ON UNIT  53 AT TIME STEP 20, STRESS PERIOD   3
 UBDSV2 SAVING "   CONSTANT HEAD" ON UNIT  53 AT TIME STEP 20, STRESS PERIOD   3
 UBDSV1 SAVING "FLOW RIGHT FACE " ON UNIT  53 AT TIME STEP 20, STRESS PERIOD   3
 UBDSV1 SAVING "FLOW FRONT FACE " ON UNIT  53 AT TIME STEP 20, STRESS PERIOD   3
1
              HEAD IN LAYER   1 AT END OF TIME STEP  20 IN STRESS PERIOD    3
  ---------------------------------------------------------------------------

            1           2           3           4           5           6           7           8           9          10
 ........................................................................................................................
   1    9.990       8.799       7.616       6.451       5.315       4.216       3.145       2.093       1.050      1.0392E-02
   2    9.990       8.790       7.596       6.418       5.274       4.182       3.123       2.080       1.044      1.0338E-02
   3    9.990       8.772       7.555       6.347       5.178       4.110       3.080       2.058       1.035      1.0245E-02
   4    9.990       8.751       7.502       6.234       4.974       3.996       3.025       2.033       1.025      1.0152E-02
   5    9.990       8.741       7.465       6.107       4.485       3.870       2.988       2.021       1.022      1.0116E-02
   6    9.990       8.755       7.508       6.242       4.983       4.005       3.033       2.039       1.028      1.0181E-02
   7    9.990       8.779       7.568       6.364       5.197       4.129       3.096       2.069       1.041      1.0306E-02
   8    9.990       8.801       7.617       6.447       5.307       4.214       3.149       2.099       1.054      1.0435E-02
   9    9.990       8.817       7.650       6.497       5.366       4.264       3.185       2.121       1.064      1.0535E-02
  10    9.990       8.825       7.666       6.520       5.393       4.288       3.203       2.132       1.069      1.0587E-02

 HEAD WILL BE SAVED ON UNIT   51 AT END OF TIME STEP   20, STRESS PERIOD    3

 DRAWDOWN WILL BE SAVED ON UNIT   52 AT END OF TIME STEP   20, STRESS PERIOD    3
1
  VOLUMETRIC BUDGET FOR ENTIRE MODEL AT END OF TIME STEP   20, STRESS PERIOD   3
  ------------------------------------------------------------------------------

     CUMULATIVE VOLUMES      L**3       RATES FOR THIS TIME STEP      L**3/T
     ------------------                 ------------------------

           IN:                                      IN:
           ---                                      ---
             STORAGE =       25892.3887               STORAGE =          12.8785
       CONSTANT HEAD =           0.0000         CONSTANT HEAD =           0.0000
               WELLS =           0.0000                 WELLS =           0.0000
     HEAD DEP BOUNDS =       59737.2070       HEAD DEP BOUNDS =         603.5212

            TOTAL IN =       85629.5938              TOTAL IN =         616.3997

          OUT:                                     OUT:
          ----                                     ----
             STORAGE =           0.0000               STORAGE =           0.0000
       CONSTANT HEAD =           0.0000         CONSTANT HEAD =           0.0000
               WELLS =        2000.0000                 WELLS =         100.0000
     HEAD DEP BOUNDS =       83650.0781       HEAD DEP BOUNDS =         516.4374

           TOTAL OUT =       85650.0781             TOTAL OUT =         616.4374

            IN - OUT =         -20.4844              IN - OUT =      -3.7720E-02

 PERCENT DISCREPANCY =          -0.02     PERCENT DISCREPANCY =          -0.01






         TIME SUMMARY AT END OF TIME STEP   20 IN STRESS PERIOD    3
                    SECONDS     MINUTES      HOURS       DAYS        YEARS
                    -----------------------------------------------------------
   TIME STEP LENGTH  86400.      1440.0      24.000      1.0000     2.73785E-03
 STRESS PERIOD TIME 1.72800E+06  28800.      480.00      20.000     5.47570E-02
         TOTAL TIME 1.04544E+07 1.74240E+05  2904.0      121.00     0.33128    
1

 SOLVING FOR HEAD 
     2 ITERATIONS FOR TIME STEP  21 IN STRESS PERIOD    3

 OUTPUT CONTROL FOR STRESS PERIOD    3   TIME STEP   21
    SAVE HEAD FOR ALL LAYERS
    SAVE DRAWDOWN FOR ALL LAYERS
    SAVE BUDGET
    PRINT HEAD FOR ALL LAYERS
    PRINT BUDGET
 UBDSV1 SAVING "         STORAGE" ON UNIT  53 AT TIME STEP 21, STRESS PERIOD   3
 UBDSV2 SAVING "   CONSTANT HEAD" ON UNIT  53 AT TIME STEP 21, STRESS PERIOD   3
 UBDSV1 SAVING "FLOW RIGHT FACE " ON UNIT  53 AT TIME STEP 21, STRESS PERIOD   3
 UBDSV1 SAVING "FLOW FRONT FACE " ON UNIT  53 AT TIME STEP 21, STRESS PERIOD   3
1
              HEAD IN LAYER   1 AT END OF TIME STEP  21 IN STRESS PERIOD    3
  ---------------------------------------------------------------------------

            1           2           3           4           5           6           7           8           9          10
 ........................................................................................................................
   1    9.990       8.798       7.614       6.448       5.311       4.212       3.141       2.090       1.048      1.0377E-02
   2    9.990       8.788       7.593       6.415       5.270       4.178       3.119       2.077       1.043      1.0324E-02
   3    9.990       8.770       7.552       6.344       5.174       4.106       3.076       2.055       1.033      1.0232E-02
   4    9.990       8.750       7.500       6.230       4.970       3.992       3.022       2.031       1.024      1.0139E-02
   5    9.990       8.739       7.463       6.104       4.481       3.866       2.985       2.019       1.020      1.0103E-02
   6    9.990       8.753       7.506       6.238       4.979       4.001       3.030       2.036       1.027      1.0168E-02
   7    9.990       8.777       7.565       6.361       5.193       4.125       3.093       2.067       1.040      1.0293E-02
   8    9.990       8.800       7.615       6.444       5.303       4.210       3.146       2.097       1.053      1.0423E-02
   9    9.990       8.816       7.647       6.493       5.363       4.261       3.182       2.118       1.063      1.0523E-02
  10    9.990       8.823       7.663       6.516       5.389       4.284       3.200       2.130       1.068      1.0576E-02

 HEAD WILL BE SAVED ON UNIT   51 AT END OF TIME STEP   21, STRESS PERIOD    3

 DRAWDOWN WILL BE SAVED ON UNIT   52 AT END OF TIME STEP   21, STRESS PERIOD    3
1
  VOLUMETRIC BUDGET FOR ENTIRE MODEL AT END OF TIME STEP   21, STRESS PERIOD   3
  ------------------------------------------------------------------------------

     CUMULATIVE VOLUMES      L**3       RATES FOR THIS TIME STEP      L**3/T
     ------------------                 ------------------------

           IN:                                      IN:
           ---                                      ---
             STORAGE =       25903.4863               STORAGE =          11.0971
       CONSTANT HEAD =           0.0000         CONSTANT HEAD =           0.0000
               WELLS =           0.0000                 WELLS =           0.0000
     HEAD DEP BOUNDS =       60341.3906       HEAD DEP BOUNDS =         604.1836

            TOTAL IN =       86244.8750              TOTAL IN =         615.2806

          OUT:                                     OUT:
          ----                                     ----
             STORAGE =           0.0000               STORAGE =           0.0000
       CONSTANT HEAD =           0.0000         CONSTANT HEAD =           0.0000
               WELLS =        2100.0000                 WELLS =         100.0000
     HEAD DEP BOUNDS =       84165.8672       HEAD DEP BOUNDS =         515.7905

           TOTAL OUT =       86265.8672             TOTAL OUT =         615.7905

            IN - OUT =         -20.9922              IN - OUT =          -0.5098

 PERCENT DISCREPANCY =          -0.02     PERCENT DISCREPANCY =          -0.08






         TIME SUMMARY AT END OF TIME STEP   21 IN STRESS PERIOD    3
                    SECONDS     MINUTES      HOURS       DAYS        YEARS
                    -----------------------------------------------------------
   TIME STEP LENGTH  86400.      1440.0      24.000      1.0000     2.73785E-03
 STRESS PERIOD TIME 1.81440E+06  30240.      504.00      21.000     5.74949E-02
         TOTAL TIME 1.05408E+07 1.75680E+05  2928.0      122.00     0.33402    
1

 SOLVING FOR HEAD 
     2 ITERATIONS FOR TIME STEP  22 IN STRESS PERIOD    3

 OUTPUT CONTROL FOR STRESS PERIOD    3   TIME STEP   22
    SAVE HEAD FOR ALL LAYERS
    SAVE DRAWDOWN FOR ALL LAYERS
    SAVE BUDGET
    PRINT HEAD FOR ALL LAYERS
    PRINT BUDGET
 UBDSV1 SAVING "         STORAGE" ON UNIT  53 AT TIME STEP 22, STRESS PERIOD   3
 UBDSV2 SAVING "   CONSTANT HEAD" ON UNIT  53 AT TIME STEP 22, STRESS PERIOD   3
 UBDSV1 SAVING "FLOW RIGHT FACE " ON UNIT  53 AT TIME STEP 22, STRESS PERIOD   3
 UBDSV1 SAVING "FLOW FRONT FACE " ON UNIT  53 AT TIME STEP 22, STRESS PERIOD   3
1
              HEAD IN LAYER   1 AT END OF TIME STEP  22 IN STRESS PERIOD    3
  ---------------------------------------------------------------------------

            1           2           3           4           5           6           7           8           9          10
 ........................................................................................................................
   1    9.990       8.797       7.611       6.445       5.308       4.208       3.138       2.088       1.047      1.0365E-02
   2    9.990       8.787       7.591       6.411       5.267       4.174       3.116       2.075       1.041      1.0311E-02
   3    9.990       8.769       7.550       6.340       5.170       4.102       3.073       2.053       1.032      1.0220E-02
   4    9.990       8.749       7.497       6.227       4.967       3.988       3.019       2.028       1.023      1.0127E-02
   5    9.990       8.738       7.460       6.101       4.477       3.862       2.982       2.016       1.019      1.0091E-02
   6    9.990       8.752       7.503       6.235       4.976       3.998       3.027       2.034       1.026      1.0156E-02
   7    9.990       8.776       7.563       6.358       5.190       4.122       3.090       2.065       1.038      1.0282E-02
   8    9.990       8.799       7.613       6.441       5.300       4.207       3.143       2.095       1.052      1.0412E-02
   9    9.990       8.814       7.645       6.491       5.359       4.257       3.179       2.116       1.062      1.0511E-02
  10    9.990       8.822       7.661       6.513       5.386       4.281       3.197       2.127       1.067      1.0564E-02

 HEAD WILL BE SAVED ON UNIT   51 AT END OF TIME STEP   22, STRESS PERIOD    3

 DRAWDOWN WILL BE SAVED ON UNIT   52 AT END OF TIME STEP   22, STRESS PERIOD    3
1
  VOLUMETRIC BUDGET FOR ENTIRE MODEL AT END OF TIME STEP   22, STRESS PERIOD   3
  ------------------------------------------------------------------------------

     CUMULATIVE VOLUMES      L**3       RATES FOR THIS TIME STEP      L**3/T
     ------------------                 ------------------------

           IN:                                      IN:
           ---                                      ---
             STORAGE =       25913.4375               STORAGE =           9.9521
       CONSTANT HEAD =           0.0000         CONSTANT HEAD =           0.0000
               WELLS =           0.0000                 WELLS =           0.0000
     HEAD DEP BOUNDS =       60946.1680       HEAD DEP BOUNDS =         604.7775

            TOTAL IN =       86859.6094              TOTAL IN =         614.7297

          OUT:                                     OUT:
          ----                                     ----
             STORAGE =           0.0000               STORAGE =           0.0000
       CONSTANT HEAD =           0.0000         CONSTANT HEAD =           0.0000
               WELLS =        2200.0000                 WELLS =         100.0000
     HEAD DEP BOUNDS =       84681.0625       HEAD DEP BOUNDS =         515.1926

           TOTAL OUT =       86881.0625             TOTAL OUT =         615.1926

            IN - OUT =         -21.4531              IN - OUT =          -0.4630

 PERCENT DISCREPANCY =          -0.02     PERCENT DISCREPANCY =          -0.08






         TIME SUMMARY AT END OF TIME STEP   22 IN STRESS PERIOD    3
                    SECONDS     MINUTES      HOURS       DAYS        YEARS
                    -----------------------------------------------------------
   TIME STEP LENGTH  86400.      1440.0      24.000      1.0000     2.73785E-03
 STRESS PERIOD TIME 1.90080E+06  31680.      528.00      22.000     6.02327E-02
         TOTAL TIME 1.06272E+07 1.77120E+05  2952.0      123.00     0.33676    
1

 SOLVING FOR HEAD 
     2 ITERATIONS FOR TIME STEP  23 IN STRESS PERIOD    3

 OUTPUT CONTROL FOR STRESS PERIOD    3   TIME STEP   23
    SAVE HEAD FOR ALL LAYERS
    SAVE DRAWDOWN FOR ALL LAYERS
    SAVE BUDGET
    PRINT HEAD FOR ALL LAYERS
    PRINT BUDGET
 UBDSV1 SAVING "         STORAGE" ON UNIT  53 AT TIME STEP 23, STRESS PERIOD   3
 UBDSV2 SAVING "   CONSTANT HEAD" ON UNIT  53 AT TIME STEP 23, STRESS PERIOD   3
 UBDSV1 SAVING "FLOW RIGHT FACE " ON UNIT  53 AT TIME STEP 23, STRESS PERIOD   3
 UBDSV1 SAVING "FLOW FRONT FACE " ON UNIT  53 AT TIME STEP 23, STRESS PERIOD   3
1
              HEAD IN LAYER   1 AT END OF TIME STEP  23 IN STRESS PERIOD    3
  ---------------------------------------------------------------------------

            1           2           3           4           5           6           7           8           9          10
 ........................................................................................................................
   1    9.990       8.795       7.609       6.442       5.304       4.205       3.135       2.085       1.046      1.0353E-02
   2    9.990       8.786       7.588       6.409       5.264       4.171       3.113       2.073       1.040      1.0300E-02
   3    9.990       8.768       7.548       6.338       5.167       4.099       3.071       2.051       1.031      1.0208E-02
   4    9.990       8.748       7.495       6.224       4.963       3.985       3.016       2.026       1.022      1.0116E-02
   5    9.990       8.737       7.458       6.098       4.474       3.859       2.979       2.014       1.018      1.0080E-02
   6    9.990       8.751       7.501       6.233       4.973       3.994       3.024       2.032       1.025      1.0146E-02
   7    9.990       8.775       7.561       6.356       5.187       4.119       3.087       2.063       1.037      1.0271E-02
   8    9.990       8.798       7.611       6.438       5.297       4.204       3.141       2.093       1.051      1.0401E-02
   9    9.990       8.813       7.643       6.488       5.356       4.254       3.177       2.114       1.061      1.0501E-02
  10    9.990       8.821       7.659       6.511       5.383       4.278       3.194       2.126       1.066      1.0554E-02

 HEAD WILL BE SAVED ON UNIT   51 AT END OF TIME STEP   23, STRESS PERIOD    3

 DRAWDOWN WILL BE SAVED ON UNIT   52 AT END OF TIME STEP   23, STRESS PERIOD    3
1
  VOLUMETRIC BUDGET FOR ENTIRE MODEL AT END OF TIME STEP   23, STRESS PERIOD   3
  ------------------------------------------------------------------------------

     CUMULATIVE VOLUMES      L**3       RATES FOR THIS TIME STEP      L**3/T
     ------------------                 ------------------------

           IN:                                      IN:
           ---                                      ---
             STORAGE =       25922.3633               STORAGE =           8.9252
       CONSTANT HEAD =           0.0000         CONSTANT HEAD =           0.0000
               WELLS =           0.0000                 WELLS =           0.0000
     HEAD DEP BOUNDS =       61551.4805       HEAD DEP BOUNDS =         605.3135

            TOTAL IN =       87473.8438              TOTAL IN =         614.2387

          OUT:                                     OUT:
          ----                                     ----
             STORAGE =           0.0000               STORAGE =           0.0000
       CONSTANT HEAD =           0.0000         CONSTANT HEAD =           0.0000
               WELLS =        2300.0000                 WELLS =         100.0000
     HEAD DEP BOUNDS =       85195.7188       HEAD DEP BOUNDS =         514.6556

           TOTAL OUT =       87495.7188             TOTAL OUT =         614.6556

            IN - OUT =         -21.8750              IN - OUT =          -0.4169

 PERCENT DISCREPANCY =          -0.03     PERCENT DISCREPANCY =          -0.07






         TIME SUMMARY AT END OF TIME STEP   23 IN STRESS PERIOD    3
                    SECONDS     MINUTES      HOURS       DAYS        YEARS
                    -----------------------------------------------------------
   TIME STEP LENGTH  86400.      1440.0      24.000      1.0000     2.73785E-03
 STRESS PERIOD TIME 1.98720E+06  33120.      552.00      23.000     6.29706E-02
         TOTAL TIME 1.07136E+07 1.78560E+05  2976.0      124.00     0.33949    
1

 SOLVING FOR HEAD 
     2 ITERATIONS FOR TIME STEP  24 IN STRESS PERIOD    3

 OUTPUT CONTROL FOR STRESS PERIOD    3   TIME STEP   24
    SAVE HEAD FOR ALL LAYERS
    SAVE DRAWDOWN FOR ALL LAYERS
    SAVE BUDGET
    PRINT HEAD FOR ALL LAYERS
    PRINT BUDGET
 UBDSV1 SAVING "         STORAGE" ON UNIT  53 AT TIME STEP 24, STRESS PERIOD   3
 UBDSV2 SAVING "   CONSTANT HEAD" ON UNIT  53 AT TIME STEP 24, STRESS PERIOD   3
 UBDSV1 SAVING "FLOW RIGHT FACE " ON UNIT  53 AT TIME STEP 24, STRESS PERIOD   3
 UBDSV1 SAVING "FLOW FRONT FACE " ON UNIT  53 AT TIME STEP 24, STRESS PERIOD   3
1
              HEAD IN LAYER   1 AT END OF TIME STEP  24 IN STRESS PERIOD    3
  ---------------------------------------------------------------------------

            1           2           3           4           5           6           7           8           9          10
 ........................................................................................................................
   1    9.990       8.794       7.607       6.439       5.302       4.202       3.133       2.084       1.045      1.0343E-02
   2    9.990       8.785       7.587       6.406       5.261       4.168       3.111       2.071       1.039      1.0290E-02
   3    9.990       8.767       7.546       6.335       5.164       4.096       3.068       2.049       1.030      1.0198E-02
   4    9.990       8.747       7.493       6.222       4.961       3.982       3.014       2.024       1.021      1.0106E-02
   5    9.990       8.736       7.457       6.096       4.471       3.856       2.977       2.012       1.017      1.0070E-02
   6    9.990       8.750       7.500       6.230       4.970       3.992       3.021       2.030       1.024      1.0136E-02
   7    9.990       8.774       7.559       6.353       5.184       4.116       3.085       2.061       1.036      1.0262E-02
   8    9.990       8.797       7.609       6.436       5.294       4.201       3.138       2.091       1.050      1.0392E-02
   9    9.990       8.812       7.641       6.486       5.354       4.252       3.174       2.113       1.060      1.0492E-02
  10    9.990       8.820       7.657       6.508       5.380       4.276       3.192       2.124       1.065      1.0545E-02

 HEAD WILL BE SAVED ON UNIT   51 AT END OF TIME STEP   24, STRESS PERIOD    3

 DRAWDOWN WILL BE SAVED ON UNIT   52 AT END OF TIME STEP   24, STRESS PERIOD    3
1
  VOLUMETRIC BUDGET FOR ENTIRE MODEL AT END OF TIME STEP   24, STRESS PERIOD   3
  ------------------------------------------------------------------------------

     CUMULATIVE VOLUMES      L**3       RATES FOR THIS TIME STEP      L**3/T
     ------------------                 ------------------------

           IN:                                      IN:
           ---                                      ---
             STORAGE =       25930.3672               STORAGE =           8.0038
       CONSTANT HEAD =           0.0000         CONSTANT HEAD =           0.0000
               WELLS =           0.0000                 WELLS =           0.0000
     HEAD DEP BOUNDS =       62157.2812       HEAD DEP BOUNDS =         605.8021

            TOTAL IN =       88087.6484              TOTAL IN =         613.8058

          OUT:                                     OUT:
          ----                                     ----
             STORAGE =           0.0000               STORAGE =           0.0000
       CONSTANT HEAD =           0.0000         CONSTANT HEAD =           0.0000
               WELLS =        2400.0000                 WELLS =         100.0000
     HEAD DEP BOUNDS =       85709.8906       HEAD DEP BOUNDS =         514.1737

           TOTAL OUT =       88109.8906             TOTAL OUT =         614.1737

            IN - OUT =         -22.2422              IN - OUT =          -0.3679

 PERCENT DISCREPANCY =          -0.03     PERCENT DISCREPANCY =          -0.06






         TIME SUMMARY AT END OF TIME STEP   24 IN STRESS PERIOD    3
                    SECONDS     MINUTES      HOURS       DAYS        YEARS
                    -----------------------------------------------------------
   TIME STEP LENGTH  86400.      1440.0      24.000      1.0000     2.73785E-03
 STRESS PERIOD TIME 2.07360E+06  34560.      576.00      24.000     6.57084E-02
         TOTAL TIME 1.08000E+07 1.80000E+05  3000.0      125.00     0.34223    
1

 SOLVING FOR HEAD 
     2 ITERATIONS FOR TIME STEP  25 IN STRESS PERIOD    3

 OUTPUT CONTROL FOR STRESS PERIOD    3   TIME STEP   25
    SAVE HEAD FOR ALL LAYERS
    SAVE DRAWDOWN FOR ALL LAYERS
    SAVE BUDGET
    PRINT HEAD FOR ALL LAYERS
    PRINT BUDGET
 UBDSV1 SAVING "         STORAGE" ON UNIT  53 AT TIME STEP 25, STRESS PERIOD   3
 UBDSV2 SAVING "   CONSTANT HEAD" ON UNIT  53 AT TIME STEP 25, STRESS PERIOD   3
 UBDSV1 SAVING "FLOW RIGHT FACE " ON UNIT  53 AT TIME STEP 25, STRESS PERIOD   3
 UBDSV1 SAVING "FLOW FRONT FACE " ON UNIT  53 AT TIME STEP 25, STRESS PERIOD   3
1
              HEAD IN LAYER   1 AT END OF TIME STEP  25 IN STRESS PERIOD    3
  ---------------------------------------------------------------------------

            1           2           3           4           5           6           7           8           9          10
 ........................................................................................................................
   1    9.990       8.794       7.606       6.437       5.299       4.199       3.131       2.082       1.044      1.0335E-02
   2    9.990       8.784       7.585       6.404       5.258       4.166       3.108       2.069       1.038      1.0281E-02
   3    9.990       8.766       7.544       6.333       5.161       4.094       3.066       2.047       1.029      1.0190E-02
   4    9.990       8.746       7.492       6.220       4.958       3.980       3.011       2.023       1.020      1.0097E-02
   5    9.990       8.735       7.455       6.093       4.469       3.854       2.974       2.011       1.016      1.0062E-02
   6    9.990       8.749       7.498       6.228       4.968       3.989       3.019       2.029       1.023      1.0128E-02
   7    9.990       8.773       7.558       6.351       5.182       4.114       3.083       2.059       1.036      1.0253E-02
   8    9.990       8.796       7.607       6.434       5.292       4.198       3.136       2.089       1.049      1.0383E-02
   9    9.990       8.812       7.640       6.483       5.351       4.249       3.172       2.111       1.059      1.0483E-02
  10    9.990       8.819       7.656       6.506       5.378       4.273       3.190       2.122       1.064      1.0536E-02

 HEAD WILL BE SAVED ON UNIT   51 AT END OF TIME STEP   25, STRESS PERIOD    3

 DRAWDOWN WILL BE SAVED ON UNIT   52 AT END OF TIME STEP   25, STRESS PERIOD    3
1
  VOLUMETRIC BUDGET FOR ENTIRE MODEL AT END OF TIME STEP   25, STRESS PERIOD   3
  ------------------------------------------------------------------------------

     CUMULATIVE VOLUMES      L**3       RATES FOR THIS TIME STEP      L**3/T
     ------------------                 ------------------------

           IN:                                      IN:
           ---                                      ---
             STORAGE =       25937.5449               STORAGE =           7.1780
       CONSTANT HEAD =           0.0000         CONSTANT HEAD =           0.0000
               WELLS =           0.0000                 WELLS =           0.0000
     HEAD DEP BOUNDS =       62763.5234       HEAD DEP BOUNDS =         606.2411

            TOTAL IN =       88701.0703              TOTAL IN =         613.4192

          OUT:                                     OUT:
          ----                                     ----
             STORAGE =           0.0000               STORAGE =           0.0000
       CONSTANT HEAD =           0.0000         CONSTANT HEAD =           0.0000
               WELLS =        2500.0000                 WELLS =         100.0000
     HEAD DEP BOUNDS =       86223.6328       HEAD DEP BOUNDS =         513.7413

           TOTAL OUT =       88723.6328             TOTAL OUT =         613.7413

            IN - OUT =         -22.5625              IN - OUT =          -0.3221

 PERCENT DISCREPANCY =          -0.03     PERCENT DISCREPANCY =          -0.05






         TIME SUMMARY AT END OF TIME STEP   25 IN STRESS PERIOD    3
                    SECONDS     MINUTES      HOURS       DAYS        YEARS
                    -----------------------------------------------------------
   TIME STEP LENGTH  86400.      1440.0      24.000      1.0000     2.73785E-03
 STRESS PERIOD TIME 2.16000E+06  36000.      600.00      25.000     6.84463E-02
         TOTAL TIME 1.08864E+07 1.81440E+05  3024.0      126.00     0.34497    
1

 SOLVING FOR HEAD 
     2 ITERATIONS FOR TIME STEP  26 IN STRESS PERIOD    3

 OUTPUT CONTROL FOR STRESS PERIOD    3   TIME STEP   26
    SAVE HEAD FOR ALL LAYERS
    SAVE DRAWDOWN FOR ALL LAYERS
    SAVE BUDGET
    PRINT HEAD FOR ALL LAYERS
    PRINT BUDGET
 UBDSV1 SAVING "         STORAGE" ON UNIT  53 AT TIME STEP 26, STRESS PERIOD   3
 UBDSV2 SAVING "   CONSTANT HEAD" ON UNIT  53 AT TIME STEP 26, STRESS PERIOD   3
 UBDSV1 SAVING "FLOW RIGHT FACE " ON UNIT  53 AT TIME STEP 26, STRESS PERIOD   3
 UBDSV1 SAVING "FLOW FRONT FACE " ON UNIT  53 AT TIME STEP 26, STRESS PERIOD   3
1
              HEAD IN LAYER   1 AT END OF TIME STEP  26 IN STRESS PERIOD    3
  ---------------------------------------------------------------------------

            1           2           3           4           5           6           7           8           9          10
 ........................................................................................................................
   1    9.990       8.793       7.604       6.435       5.297       4.197       3.129       2.080       1.043      1.0327E-02
   2    9.990       8.783       7.583       6.402       5.256       4.163       3.106       2.068       1.038      1.0273E-02
   3    9.990       8.765       7.543       6.331       5.159       4.092       3.064       2.046       1.028      1.0182E-02
   4    9.990       8.745       7.490       6.218       4.956       3.978       3.009       2.021       1.019      1.0089E-02
   5    9.990       8.734       7.454       6.092       4.467       3.852       2.972       2.009       1.015      1.0054E-02
   6    9.990       8.749       7.497       6.226       4.965       3.987       3.017       2.027       1.022      1.0120E-02
   7    9.990       8.773       7.556       6.349       5.180       4.111       3.081       2.058       1.035      1.0245E-02
   8    9.990       8.795       7.606       6.432       5.290       4.196       3.134       2.088       1.048      1.0376E-02
   9    9.990       8.811       7.639       6.482       5.349       4.247       3.170       2.110       1.058      1.0476E-02
  10    9.990       8.819       7.654       6.504       5.376       4.271       3.188       2.121       1.063      1.0529E-02

 HEAD WILL BE SAVED ON UNIT   51 AT END OF TIME STEP   26, STRESS PERIOD    3

 DRAWDOWN WILL BE SAVED ON UNIT   52 AT END OF TIME STEP   26, STRESS PERIOD    3
1
  VOLUMETRIC BUDGET FOR ENTIRE MODEL AT END OF TIME STEP   26, STRESS PERIOD   3
  ------------------------------------------------------------------------------

     CUMULATIVE VOLUMES      L**3       RATES FOR THIS TIME STEP      L**3/T
     ------------------                 ------------------------

           IN:                                      IN:
           ---                                      ---
             STORAGE =       25943.9824               STORAGE =           6.4369
       CONSTANT HEAD =           0.0000         CONSTANT HEAD =           0.0000
               WELLS =           0.0000                 WELLS =           0.0000
     HEAD DEP BOUNDS =       63370.1523       HEAD DEP BOUNDS =         606.6283

            TOTAL IN =       89314.1328              TOTAL IN =         613.0652

          OUT:                                     OUT:
          ----                                     ----
             STORAGE =           0.0000               STORAGE =           0.0000
       CONSTANT HEAD =           0.0000         CONSTANT HEAD =           0.0000
               WELLS =        2600.0000                 WELLS =         100.0000
     HEAD DEP BOUNDS =       86736.9844       HEAD DEP BOUNDS =         513.3533

           TOTAL OUT =       89336.9844             TOTAL OUT =         613.3533

            IN - OUT =         -22.8516              IN - OUT =          -0.2881

 PERCENT DISCREPANCY =          -0.03     PERCENT DISCREPANCY =          -0.05






         TIME SUMMARY AT END OF TIME STEP   26 IN STRESS PERIOD    3
                    SECONDS     MINUTES      HOURS       DAYS        YEARS
                    -----------------------------------------------------------
   TIME STEP LENGTH  86400.      1440.0      24.000      1.0000     2.73785E-03
 STRESS PERIOD TIME 2.24640E+06  37440.      624.00      26.000     7.11841E-02
         TOTAL TIME 1.09728E+07 1.82880E+05  3048.0      127.00     0.34771    
1

 SOLVING FOR HEAD 
     2 ITERATIONS FOR TIME STEP  27 IN STRESS PERIOD    3

 OUTPUT CONTROL FOR STRESS PERIOD    3   TIME STEP   27
    SAVE HEAD FOR ALL LAYERS
    SAVE DRAWDOWN FOR ALL LAYERS
    SAVE BUDGET
    PRINT HEAD FOR ALL LAYERS
    PRINT BUDGET
 UBDSV1 SAVING "         STORAGE" ON UNIT  53 AT TIME STEP 27, STRESS PERIOD   3
 UBDSV2 SAVING "   CONSTANT HEAD" ON UNIT  53 AT TIME STEP 27, STRESS PERIOD   3
 UBDSV1 SAVING "FLOW RIGHT FACE " ON UNIT  53 AT TIME STEP 27, STRESS PERIOD   3
 UBDSV1 SAVING "FLOW FRONT FACE " ON UNIT  53 AT TIME STEP 27, STRESS PERIOD   3
1
              HEAD IN LAYER   1 AT END OF TIME STEP  27 IN STRESS PERIOD    3
  ---------------------------------------------------------------------------

            1           2           3           4           5           6           7           8           9          10
 ........................................................................................................................
   1    9.990       8.792       7.603       6.433       5.295       4.195       3.127       2.079       1.042      1.0319E-02
   2    9.990       8.782       7.582       6.400       5.254       4.161       3.105       2.067       1.037      1.0266E-02
   3    9.990       8.765       7.542       6.329       5.157       4.090       3.062       2.044       1.028      1.0174E-02
   4    9.990       8.744       7.489       6.216       4.954       3.976       3.007       2.020       1.018      1.0082E-02
   5    9.990       8.734       7.452       6.090       4.465       3.850       2.971       2.008       1.015      1.0047E-02
   6    9.990       8.748       7.495       6.224       4.963       3.985       3.016       2.026       1.021      1.0113E-02
   7    9.990       8.772       7.555       6.347       5.178       4.110       3.079       2.057       1.034      1.0239E-02
   8    9.990       8.794       7.605       6.430       5.288       4.194       3.133       2.087       1.047      1.0369E-02
   9    9.990       8.810       7.637       6.480       5.347       4.245       3.169       2.108       1.057      1.0469E-02
  10    9.990       8.818       7.653       6.503       5.374       4.269       3.186       2.120       1.063      1.0522E-02

 HEAD WILL BE SAVED ON UNIT   51 AT END OF TIME STEP   27, STRESS PERIOD    3

 DRAWDOWN WILL BE SAVED ON UNIT   52 AT END OF TIME STEP   27, STRESS PERIOD    3
1
  VOLUMETRIC BUDGET FOR ENTIRE MODEL AT END OF TIME STEP   27, STRESS PERIOD   3
  ------------------------------------------------------------------------------

     CUMULATIVE VOLUMES      L**3       RATES FOR THIS TIME STEP      L**3/T
     ------------------                 ------------------------

           IN:                                      IN:
           ---                                      ---
             STORAGE =       25949.7539               STORAGE =           5.7724
       CONSTANT HEAD =           0.0000         CONSTANT HEAD =           0.0000
               WELLS =           0.0000                 WELLS =           0.0000
     HEAD DEP BOUNDS =       63977.1250       HEAD DEP BOUNDS =         606.9719

            TOTAL IN =       89926.8750              TOTAL IN =         612.7443

          OUT:                                     OUT:
          ----                                     ----
             STORAGE =           0.0000               STORAGE =           0.0000
       CONSTANT HEAD =           0.0000         CONSTANT HEAD =           0.0000
               WELLS =        2700.0000                 WELLS =         100.0000
     HEAD DEP BOUNDS =       87249.9922       HEAD DEP BOUNDS =         513.0053

           TOTAL OUT =       89949.9922             TOTAL OUT =         613.0053

            IN - OUT =         -23.1172              IN - OUT =          -0.2610

 PERCENT DISCREPANCY =          -0.03     PERCENT DISCREPANCY =          -0.04






         TIME SUMMARY AT END OF TIME STEP   27 IN STRESS PERIOD    3
                    SECONDS     MINUTES      HOURS       DAYS        YEARS
                    -----------------------------------------------------------
   TIME STEP LENGTH  86400.      1440.0      24.000      1.0000     2.73785E-03
 STRESS PERIOD TIME 2.33280E+06  38880.      648.00      27.000     7.39220E-02
         TOTAL TIME 1.10592E+07 1.84320E+05  3072.0      128.00     0.35044    
1

 SOLVING FOR HEAD 
     2 ITERATIONS FOR TIME STEP  28 IN STRESS PERIOD    3

 OUTPUT CONTROL FOR STRESS PERIOD    3   TIME STEP   28
    SAVE HEAD FOR ALL LAYERS
    SAVE DRAWDOWN FOR ALL LAYERS
    SAVE BUDGET
    PRINT HEAD FOR ALL LAYERS
    PRINT BUDGET
 UBDSV1 SAVING "         STORAGE" ON UNIT  53 AT TIME STEP 28, STRESS PERIOD   3
 UBDSV2 SAVING "   CONSTANT HEAD" ON UNIT  53 AT TIME STEP 28, STRESS PERIOD   3
 UBDSV1 SAVING "FLOW RIGHT FACE " ON UNIT  53 AT TIME STEP 28, STRESS PERIOD   3
 UBDSV1 SAVING "FLOW FRONT FACE " ON UNIT  53 AT TIME STEP 28, STRESS PERIOD   3
1
              HEAD IN LAYER   1 AT END OF TIME STEP  28 IN STRESS PERIOD    3
  ---------------------------------------------------------------------------

            1           2           3           4           5           6           7           8           9          10
 ........................................................................................................................
   1    9.990       8.791       7.602       6.431       5.293       4.193       3.125       2.078       1.042      1.0313E-02
   2    9.990       8.782       7.581       6.398       5.252       4.159       3.103       2.065       1.036      1.0260E-02
   3    9.990       8.764       7.540       6.327       5.155       4.088       3.060       2.043       1.027      1.0168E-02
   4    9.990       8.744       7.488       6.214       4.952       3.974       3.006       2.019       1.018      1.0076E-02
   5    9.990       8.733       7.451       6.088       4.463       3.848       2.969       2.007       1.014      1.0041E-02
   6    9.990       8.747       7.494       6.223       4.962       3.983       3.014       2.025       1.021      1.0107E-02
   7    9.990       8.771       7.554       6.346       5.176       4.108       3.077       2.056       1.033      1.0232E-02
   8    9.990       8.794       7.603       6.429       5.286       4.193       3.131       2.085       1.047      1.0363E-02
   9    9.990       8.810       7.636       6.478       5.345       4.244       3.167       2.107       1.057      1.0463E-02
  10    9.990       8.817       7.652       6.501       5.372       4.267       3.185       2.118       1.062      1.0516E-02

 HEAD WILL BE SAVED ON UNIT   51 AT END OF TIME STEP   28, STRESS PERIOD    3

 DRAWDOWN WILL BE SAVED ON UNIT   52 AT END OF TIME STEP   28, STRESS PERIOD    3
1
  VOLUMETRIC BUDGET FOR ENTIRE MODEL AT END OF TIME STEP   28, STRESS PERIOD   3
  ------------------------------------------------------------------------------

     CUMULATIVE VOLUMES      L**3       RATES FOR THIS TIME STEP      L**3/T
     ------------------                 ------------------------

           IN:                                      IN:
           ---                                      ---
             STORAGE =       25954.9316               STORAGE =           5.1768
       CONSTANT HEAD =           0.0000         CONSTANT HEAD =           0.0000
               WELLS =           0.0000                 WELLS =           0.0000
     HEAD DEP BOUNDS =       64584.4102       HEAD DEP BOUNDS =         607.2839

            TOTAL IN =       90539.3438              TOTAL IN =         612.4607

          OUT:                                     OUT:
          ----                                     ----
             STORAGE =           0.0000               STORAGE =           0.0000
       CONSTANT HEAD =           0.0000         CONSTANT HEAD =           0.0000
               WELLS =        2800.0000                 WELLS =         100.0000
     HEAD DEP BOUNDS =       87762.6875       HEAD DEP BOUNDS =         512.6931

           TOTAL OUT =       90562.6875             TOTAL OUT =         612.6931

            IN - OUT =         -23.3438              IN - OUT =          -0.2324

 PERCENT DISCREPANCY =          -0.03     PERCENT DISCREPANCY =          -0.04






         TIME SUMMARY AT END OF TIME STEP   28 IN STRESS PERIOD    3
                    SECONDS     MINUTES      HOURS       DAYS        YEARS
                    -----------------------------------------------------------
   TIME STEP LENGTH  86400.      1440.0      24.000      1.0000     2.73785E-03
 STRESS PERIOD TIME 2.41920E+06  40320.      672.00      28.000     7.66598E-02
         TOTAL TIME 1.11456E+07 1.85760E+05  3096.0      129.00     0.35318    
1

 SOLVING FOR HEAD 
     2 ITERATIONS FOR TIME STEP  29 IN STRESS PERIOD    3

 OUTPUT CONTROL FOR STRESS PERIOD    3   TIME STEP   29
    SAVE HEAD FOR ALL LAYERS
    SAVE DRAWDOWN FOR ALL LAYERS
    SAVE BUDGET
    PRINT HEAD FOR ALL LAYERS
    PRINT BUDGET
 UBDSV1 SAVING "         STORAGE" ON UNIT  53 AT TIME STEP 29, STRESS PERIOD   3
 UBDSV2 SAVING "   CONSTANT HEAD" ON UNIT  53 AT TIME STEP 29, STRESS PERIOD   3
 UBDSV1 SAVING "FLOW RIGHT FACE " ON UNIT  53 AT TIME STEP 29, STRESS PERIOD   3
 UBDSV1 SAVING "FLOW FRONT FACE " ON UNIT  53 AT TIME STEP 29, STRESS PERIOD   3
1
              HEAD IN LAYER   1 AT END OF TIME STEP  29 IN STRESS PERIOD    3
  ---------------------------------------------------------------------------

            1           2           3           4           5           6           7           8           9          10
 ........................................................................................................................
   1    9.990       8.791       7.601       6.430       5.291       4.191       3.124       2.077       1.041      1.0307E-02
   2    9.990       8.781       7.580       6.397       5.250       4.158       3.102       2.064       1.036      1.0254E-02
   3    9.990       8.763       7.539       6.326       5.154       4.086       3.059       2.042       1.026      1.0162E-02
   4    9.990       8.743       7.487       6.213       4.950       3.972       3.004       2.018       1.017      1.0070E-02
   5    9.990       8.732       7.450       6.087       4.461       3.846       2.968       2.006       1.013      1.0035E-02
   6    9.990       8.747       7.493       6.221       4.960       3.982       3.013       2.024       1.020      1.0101E-02
   7    9.990       8.771       7.553       6.344       5.174       4.106       3.076       2.055       1.033      1.0227E-02
   8    9.990       8.793       7.602       6.427       5.285       4.191       3.130       2.084       1.046      1.0358E-02
   9    9.990       8.809       7.635       6.477       5.344       4.242       3.166       2.106       1.056      1.0458E-02
  10    9.990       8.817       7.651       6.500       5.370       4.266       3.183       2.117       1.062      1.0511E-02

 HEAD WILL BE SAVED ON UNIT   51 AT END OF TIME STEP   29, STRESS PERIOD    3

 DRAWDOWN WILL BE SAVED ON UNIT   52 AT END OF TIME STEP   29, STRESS PERIOD    3
1
  VOLUMETRIC BUDGET FOR ENTIRE MODEL AT END OF TIME STEP   29, STRESS PERIOD   3
  ------------------------------------------------------------------------------

     CUMULATIVE VOLUMES      L**3       RATES FOR THIS TIME STEP      L**3/T
     ------------------                 ------------------------

           IN:                                      IN:
           ---                                      ---
             STORAGE =       25959.5742               STORAGE =           4.6423
       CONSTANT HEAD =           0.0000         CONSTANT HEAD =           0.0000
               WELLS =           0.0000                 WELLS =           0.0000
     HEAD DEP BOUNDS =       65191.9727       HEAD DEP BOUNDS =         607.5640

            TOTAL IN =       91151.5469              TOTAL IN =         612.2062

          OUT:                                     OUT:
          ----                                     ----
             STORAGE =           0.0000               STORAGE =           0.0000
       CONSTANT HEAD =           0.0000         CONSTANT HEAD =           0.0000
               WELLS =        2900.0000                 WELLS =         100.0000
     HEAD DEP BOUNDS =       88275.1016       HEAD DEP BOUNDS =         512.4131

           TOTAL OUT =       91175.1016             TOTAL OUT =         612.4131

            IN - OUT =         -23.5547              IN - OUT =          -0.2069

 PERCENT DISCREPANCY =          -0.03     PERCENT DISCREPANCY =          -0.03






         TIME SUMMARY AT END OF TIME STEP   29 IN STRESS PERIOD    3
                    SECONDS     MINUTES      HOURS       DAYS        YEARS
                    -----------------------------------------------------------
   TIME STEP LENGTH  86400.      1440.0      24.000      1.0000     2.73785E-03
 STRESS PERIOD TIME 2.50560E+06  41760.      696.00      29.000     7.93977E-02
         TOTAL TIME 1.12320E+07 1.87200E+05  3120.0      130.00     0.35592    
1

 SOLVING FOR HEAD 
     2 ITERATIONS FOR TIME STEP  30 IN STRESS PERIOD    3

 OUTPUT CONTROL FOR STRESS PERIOD    3   TIME STEP   30
    SAVE HEAD FOR ALL LAYERS
    SAVE DRAWDOWN FOR ALL LAYERS
    SAVE BUDGET
    PRINT HEAD FOR ALL LAYERS
    PRINT BUDGET
 UBDSV1 SAVING "         STORAGE" ON UNIT  53 AT TIME STEP 30, STRESS PERIOD   3
 UBDSV2 SAVING "   CONSTANT HEAD" ON UNIT  53 AT TIME STEP 30, STRESS PERIOD   3
 UBDSV1 SAVING "FLOW RIGHT FACE " ON UNIT  53 AT TIME STEP 30, STRESS PERIOD   3
 UBDSV1 SAVING "FLOW FRONT FACE " ON UNIT  53 AT TIME STEP 30, STRESS PERIOD   3
1
              HEAD IN LAYER   1 AT END OF TIME STEP  30 IN STRESS PERIOD    3
  ---------------------------------------------------------------------------

            1           2           3           4           5           6           7           8           9          10
 ........................................................................................................................
   1    9.990       8.790       7.600       6.429       5.290       4.190       3.122       2.076       1.041      1.0302E-02
   2    9.990       8.781       7.579       6.396       5.249       4.156       3.100       2.063       1.035      1.0249E-02
   3    9.990       8.763       7.538       6.325       5.152       4.085       3.058       2.041       1.026      1.0157E-02
   4    9.990       8.743       7.486       6.212       4.949       3.971       3.003       2.017       1.017      1.0065E-02
   5    9.990       8.732       7.449       6.085       4.460       3.845       2.966       2.005       1.013      1.0030E-02
   6    9.990       8.746       7.492       6.220       4.959       3.980       3.011       2.023       1.020      1.0096E-02
   7    9.990       8.770       7.552       6.343       5.173       4.105       3.075       2.054       1.032      1.0222E-02
   8    9.990       8.793       7.602       6.426       5.283       4.190       3.128       2.083       1.046      1.0353E-02
   9    9.990       8.808       7.634       6.476       5.342       4.241       3.164       2.105       1.056      1.0453E-02
  10    9.990       8.816       7.650       6.499       5.369       4.264       3.182       2.117       1.061      1.0506E-02

 HEAD WILL BE SAVED ON UNIT   51 AT END OF TIME STEP   30, STRESS PERIOD    3

 DRAWDOWN WILL BE SAVED ON UNIT   52 AT END OF TIME STEP   30, STRESS PERIOD    3
1
  VOLUMETRIC BUDGET FOR ENTIRE MODEL AT END OF TIME STEP   30, STRESS PERIOD   3
  ------------------------------------------------------------------------------

     CUMULATIVE VOLUMES      L**3       RATES FOR THIS TIME STEP      L**3/T
     ------------------                 ------------------------

           IN:                                      IN:
           ---                                      ---
             STORAGE =       25963.7363               STORAGE =           4.1631
       CONSTANT HEAD =           0.0000         CONSTANT HEAD =           0.0000
               WELLS =           0.0000                 WELLS =           0.0000
     HEAD DEP BOUNDS =       65799.7812       HEAD DEP BOUNDS =         607.8116

            TOTAL IN =       91763.5156              TOTAL IN =         611.9747

          OUT:                                     OUT:
          ----                                     ----
             STORAGE =           0.0000               STORAGE =           0.0000
       CONSTANT HEAD =           0.0000         CONSTANT HEAD =           0.0000
               WELLS =        3000.0000                 WELLS =         100.0000
     HEAD DEP BOUNDS =       88787.2656       HEAD DEP BOUNDS =         512.1620

           TOTAL OUT =       91787.2656             TOTAL OUT =         612.1620

            IN - OUT =         -23.7500              IN - OUT =          -0.1873

 PERCENT DISCREPANCY =          -0.03     PERCENT DISCREPANCY =          -0.03






         TIME SUMMARY AT END OF TIME STEP   30 IN STRESS PERIOD    3
                    SECONDS     MINUTES      HOURS       DAYS        YEARS
                    -----------------------------------------------------------
   TIME STEP LENGTH  86400.      1440.0      24.000      1.0000     2.73785E-03
 STRESS PERIOD TIME 2.59200E+06  43200.      720.00      30.000     8.21355E-02
         TOTAL TIME 1.13184E+07 1.88640E+05  3144.0      131.00     0.35866    
1

 SOLVING FOR HEAD 
     2 ITERATIONS FOR TIME STEP  31 IN STRESS PERIOD    3

 OUTPUT CONTROL FOR STRESS PERIOD    3   TIME STEP   31
    SAVE HEAD FOR ALL LAYERS
    SAVE DRAWDOWN FOR ALL LAYERS
    SAVE BUDGET
    PRINT HEAD FOR ALL LAYERS
    PRINT BUDGET
 UBDSV1 SAVING "         STORAGE" ON UNIT  53 AT TIME STEP 31, STRESS PERIOD   3
 UBDSV2 SAVING "   CONSTANT HEAD" ON UNIT  53 AT TIME STEP 31, STRESS PERIOD   3
 UBDSV1 SAVING "FLOW RIGHT FACE " ON UNIT  53 AT TIME STEP 31, STRESS PERIOD   3
 UBDSV1 SAVING "FLOW FRONT FACE " ON UNIT  53 AT TIME STEP 31, STRESS PERIOD   3
1
              HEAD IN LAYER   1 AT END OF TIME STEP  31 IN STRESS PERIOD    3
  ---------------------------------------------------------------------------

            1           2           3           4           5           6           7           8           9          10
 ........................................................................................................................
   1    9.990       8.790       7.599       6.428       5.288       4.189       3.121       2.075       1.040      1.0298E-02
   2    9.990       8.780       7.578       6.394       5.247       4.155       3.099       2.062       1.035      1.0244E-02
   3    9.990       8.763       7.537       6.324       5.151       4.083       3.056       2.040       1.025      1.0153E-02
   4    9.990       8.742       7.485       6.210       4.948       3.969       3.002       2.016       1.016      1.0061E-02
   5    9.990       8.732       7.448       6.084       4.458       3.843       2.965       2.004       1.012      1.0025E-02
   6    9.990       8.746       7.491       6.219       4.957       3.979       3.010       2.022       1.019      1.0092E-02
   7    9.990       8.770       7.551       6.342       5.171       4.103       3.074       2.053       1.032      1.0217E-02
   8    9.990       8.792       7.601       6.425       5.282       4.188       3.127       2.083       1.045      1.0348E-02
   9    9.990       8.808       7.633       6.475       5.341       4.239       3.163       2.104       1.055      1.0448E-02
  10    9.990       8.816       7.649       6.498       5.368       4.263       3.181       2.116       1.061      1.0501E-02

 HEAD WILL BE SAVED ON UNIT   51 AT END OF TIME STEP   31, STRESS PERIOD    3

 DRAWDOWN WILL BE SAVED ON UNIT   52 AT END OF TIME STEP   31, STRESS PERIOD    3
1
  VOLUMETRIC BUDGET FOR ENTIRE MODEL AT END OF TIME STEP   31, STRESS PERIOD   3
  ------------------------------------------------------------------------------

     CUMULATIVE VOLUMES      L**3       RATES FOR THIS TIME STEP      L**3/T
     ------------------                 ------------------------

           IN:                                      IN:
           ---                                      ---
             STORAGE =       25967.4707               STORAGE =           3.7336
       CONSTANT HEAD =           0.0000         CONSTANT HEAD =           0.0000
               WELLS =           0.0000                 WELLS =           0.0000
     HEAD DEP BOUNDS =       66407.8125       HEAD DEP BOUNDS =         608.0337

            TOTAL IN =       92375.2812              TOTAL IN =         611.7673

          OUT:                                     OUT:
          ----                                     ----
             STORAGE =           0.0000               STORAGE =           0.0000
       CONSTANT HEAD =           0.0000         CONSTANT HEAD =           0.0000
               WELLS =        3100.0000                 WELLS =         100.0000
     HEAD DEP BOUNDS =       89299.2031       HEAD DEP BOUNDS =         511.9369

           TOTAL OUT =       92399.2031             TOTAL OUT =         611.9369

            IN - OUT =         -23.9219              IN - OUT =          -0.1696

 PERCENT DISCREPANCY =          -0.03     PERCENT DISCREPANCY =          -0.03






         TIME SUMMARY AT END OF TIME STEP   31 IN STRESS PERIOD    3
                    SECONDS     MINUTES      HOURS       DAYS        YEARS
                    -----------------------------------------------------------
   TIME STEP LENGTH  86400.      1440.0      24.000      1.0000     2.73785E-03
 STRESS PERIOD TIME 2.67840E+06  44640.      744.00      31.000     8.48734E-02
         TOTAL TIME 1.14048E+07 1.90080E+05  3168.0      132.00     0.36140    
1

 SOLVING FOR HEAD 
     1 ITERATIONS FOR TIME STEP  32 IN STRESS PERIOD    3

 OUTPUT CONTROL FOR STRESS PERIOD    3   TIME STEP   32
    SAVE HEAD FOR ALL LAYERS
    SAVE DRAWDOWN FOR ALL LAYERS
    SAVE BUDGET
    PRINT HEAD FOR ALL LAYERS
    PRINT BUDGET
 UBDSV1 SAVING "         STORAGE" ON UNIT  53 AT TIME STEP 32, STRESS PERIOD   3
 UBDSV2 SAVING "   CONSTANT HEAD" ON UNIT  53 AT TIME STEP 32, STRESS PERIOD   3
 UBDSV1 SAVING "FLOW RIGHT FACE " ON UNIT  53 AT TIME STEP 32, STRESS PERIOD   3
 UBDSV1 SAVING "FLOW FRONT FACE " ON UNIT  53 AT TIME STEP 32, STRESS PERIOD   3
1
              HEAD IN LAYER   1 AT END OF TIME STEP  32 IN STRESS PERIOD    3
  ---------------------------------------------------------------------------

            1           2           3           4           5           6           7           8           9          10
 ........................................................................................................................
   1    9.990       8.789       7.598       6.427       5.287       4.188       3.120       2.074       1.040      1.0295E-02
   2    9.990       8.780       7.577       6.394       5.247       4.154       3.098       2.062       1.034      1.0242E-02
   3    9.990       8.762       7.537       6.323       5.150       4.082       3.056       2.040       1.025      1.0150E-02
   4    9.990       8.742       7.484       6.210       4.947       3.969       3.001       2.015       1.016      1.0058E-02
   5    9.990       8.731       7.448       6.084       4.458       3.842       2.964       2.003       1.012      1.0023E-02
   6    9.990       8.745       7.491       6.218       4.956       3.978       3.009       2.021       1.019      1.0089E-02
   7    9.990       8.770       7.551       6.341       5.171       4.103       3.073       2.052       1.032      1.0215E-02
   8    9.990       8.792       7.600       6.424       5.281       4.187       3.127       2.082       1.045      1.0346E-02
   9    9.990       8.808       7.633       6.474       5.340       4.238       3.163       2.104       1.055      1.0446E-02
  10    9.990       8.816       7.649       6.497       5.367       4.262       3.180       2.115       1.060      1.0498E-02

 HEAD WILL BE SAVED ON UNIT   51 AT END OF TIME STEP   32, STRESS PERIOD    3

 DRAWDOWN WILL BE SAVED ON UNIT   52 AT END OF TIME STEP   32, STRESS PERIOD    3
1
  VOLUMETRIC BUDGET FOR ENTIRE MODEL AT END OF TIME STEP   32, STRESS PERIOD   3
  ------------------------------------------------------------------------------

     CUMULATIVE VOLUMES      L**3       RATES FOR THIS TIME STEP      L**3/T
     ------------------                 ------------------------

           IN:                                      IN:
           ---                                      ---
             STORAGE =       25970.0742               STORAGE =           2.6037
       CONSTANT HEAD =           0.0000         CONSTANT HEAD =           0.0000
               WELLS =           0.0000                 WELLS =           0.0000
     HEAD DEP BOUNDS =       67016.0000       HEAD DEP BOUNDS =         608.1884

            TOTAL IN =       92986.0781              TOTAL IN =         610.7921

          OUT:                                     OUT:
          ----                                     ----
             STORAGE =           0.0000               STORAGE =           0.0000
       CONSTANT HEAD =           0.0000         CONSTANT HEAD =           0.0000
               WELLS =        3200.0000                 WELLS =         100.0000
     HEAD DEP BOUNDS =       89811.0078       HEAD DEP BOUNDS =         511.8047

           TOTAL OUT =       93011.0078             TOTAL OUT =         611.8047

            IN - OUT =         -24.9297              IN - OUT =          -1.0126

 PERCENT DISCREPANCY =          -0.03     PERCENT DISCREPANCY =          -0.17






         TIME SUMMARY AT END OF TIME STEP   32 IN STRESS PERIOD    3
                    SECONDS     MINUTES      HOURS       DAYS        YEARS
                    -----------------------------------------------------------
   TIME STEP LENGTH  86400.      1440.0      24.000      1.0000     2.73785E-03
 STRESS PERIOD TIME 2.76480E+06  46080.      768.00      32.000     8.76112E-02
         TOTAL TIME 1.14912E+07 1.91520E+05  3192.0      133.00     0.36413    
1

 SOLVING FOR HEAD 
     1 ITERATIONS FOR TIME STEP  33 IN STRESS PERIOD    3

 OUTPUT CONTROL FOR STRESS PERIOD    3   TIME STEP   33
    SAVE HEAD FOR ALL LAYERS
    SAVE DRAWDOWN FOR ALL LAYERS
    SAVE BUDGET
    PRINT HEAD FOR ALL LAYERS
    PRINT BUDGET
 UBDSV1 SAVING "         STORAGE" ON UNIT  53 AT TIME STEP 33, STRESS PERIOD   3
 UBDSV2 SAVING "   CONSTANT HEAD" ON UNIT  53 AT TIME STEP 33, STRESS PERIOD   3
 UBDSV1 SAVING "FLOW RIGHT FACE " ON UNIT  53 AT TIME STEP 33, STRESS PERIOD   3
 UBDSV1 SAVING "FLOW FRONT FACE " ON UNIT  53 AT TIME STEP 33, STRESS PERIOD   3
1
              HEAD IN LAYER   1 AT END OF TIME STEP  33 IN STRESS PERIOD    3
  ---------------------------------------------------------------------------

            1           2           3           4           5           6           7           8           9          10
 ........................................................................................................................
   1    9.990       8.789       7.597       6.426       5.287       4.187       3.120       2.074       1.040      1.0293E-02
   2    9.990       8.780       7.577       6.393       5.246       4.153       3.098       2.061       1.034      1.0239E-02
   3    9.990       8.762       7.536       6.322       5.149       4.082       3.055       2.039       1.025      1.0147E-02
   4    9.990       8.742       7.484       6.209       4.946       3.968       3.001       2.015       1.015      1.0055E-02
   5    9.990       8.731       7.447       6.083       4.457       3.842       2.964       2.003       1.012      1.0020E-02
   6    9.990       8.745       7.490       6.217       4.956       3.977       3.009       2.021       1.019      1.0086E-02
   7    9.990       8.769       7.550       6.340       5.170       4.102       3.072       2.052       1.031      1.0212E-02
   8    9.990       8.792       7.600       6.424       5.280       4.187       3.126       2.082       1.045      1.0343E-02
   9    9.990       8.807       7.632       6.473       5.340       4.238       3.162       2.103       1.055      1.0443E-02
  10    9.990       8.815       7.648       6.496       5.366       4.261       3.180       2.114       1.060      1.0495E-02

 HEAD WILL BE SAVED ON UNIT   51 AT END OF TIME STEP   33, STRESS PERIOD    3

 DRAWDOWN WILL BE SAVED ON UNIT   52 AT END OF TIME STEP   33, STRESS PERIOD    3
1
  VOLUMETRIC BUDGET FOR ENTIRE MODEL AT END OF TIME STEP   33, STRESS PERIOD   3
  ------------------------------------------------------------------------------

     CUMULATIVE VOLUMES      L**3       RATES FOR THIS TIME STEP      L**3/T
     ------------------                 ------------------------

           IN:                                      IN:
           ---                                      ---
             STORAGE =       25972.4668               STORAGE =           2.3924
       CONSTANT HEAD =           0.0000         CONSTANT HEAD =           0.0000
               WELLS =           0.0000                 WELLS =           0.0000
     HEAD DEP BOUNDS =       67624.3281       HEAD DEP BOUNDS =         608.3311

            TOTAL IN =       93596.7969              TOTAL IN =         610.7234

          OUT:                                     OUT:
          ----                                     ----
             STORAGE =           0.0000               STORAGE =           0.0000
       CONSTANT HEAD =           0.0000         CONSTANT HEAD =           0.0000
               WELLS =        3300.0000                 WELLS =         100.0000
     HEAD DEP BOUNDS =       90322.6641       HEAD DEP BOUNDS =         511.6583

           TOTAL OUT =       93622.6641             TOTAL OUT =         611.6583

            IN - OUT =         -25.8672              IN - OUT =          -0.9348

 PERCENT DISCREPANCY =          -0.03     PERCENT DISCREPANCY =          -0.15






         TIME SUMMARY AT END OF TIME STEP   33 IN STRESS PERIOD    3
                    SECONDS     MINUTES      HOURS       DAYS        YEARS
                    -----------------------------------------------------------
   TIME STEP LENGTH  86400.      1440.0      24.000      1.0000     2.73785E-03
 STRESS PERIOD TIME 2.85120E+06  47520.      792.00      33.000     9.03491E-02
         TOTAL TIME 1.15776E+07 1.92960E+05  3216.0      134.00     0.36687    
1

 SOLVING FOR HEAD 
     1 ITERATIONS FOR TIME STEP  34 IN STRESS PERIOD    3

 OUTPUT CONTROL FOR STRESS PERIOD    3   TIME STEP   34
    SAVE HEAD FOR ALL LAYERS
    SAVE DRAWDOWN FOR ALL LAYERS
    SAVE BUDGET
    PRINT HEAD FOR ALL LAYERS
    PRINT BUDGET
 UBDSV1 SAVING "         STORAGE" ON UNIT  53 AT TIME STEP 34, STRESS PERIOD   3
 UBDSV2 SAVING "   CONSTANT HEAD" ON UNIT  53 AT TIME STEP 34, STRESS PERIOD   3
 UBDSV1 SAVING "FLOW RIGHT FACE " ON UNIT  53 AT TIME STEP 34, STRESS PERIOD   3
 UBDSV1 SAVING "FLOW FRONT FACE " ON UNIT  53 AT TIME STEP 34, STRESS PERIOD   3
1
              HEAD IN LAYER   1 AT END OF TIME STEP  34 IN STRESS PERIOD    3
  ---------------------------------------------------------------------------

            1           2           3           4           5           6           7           8           9          10
 ........................................................................................................................
   1    9.990       8.789       7.597       6.425       5.286       4.186       3.119       2.073       1.039      1.0290E-02
   2    9.990       8.779       7.576       6.392       5.245       4.152       3.097       2.061       1.034      1.0236E-02
   3    9.990       8.762       7.536       6.321       5.148       4.081       3.054       2.039       1.025      1.0145E-02
   4    9.990       8.741       7.483       6.208       4.945       3.967       3.000       2.014       1.015      1.0052E-02
   5    9.990       8.731       7.447       6.082       4.456       3.841       2.963       2.002       1.012      1.0017E-02
   6    9.990       8.745       7.490       6.217       4.955       3.976       3.008       2.020       1.018      1.0084E-02
   7    9.990       8.769       7.550       6.340       5.169       4.101       3.072       2.051       1.031      1.0209E-02
   8    9.990       8.791       7.599       6.423       5.279       4.186       3.125       2.081       1.044      1.0340E-02
   9    9.990       8.807       7.632       6.472       5.339       4.237       3.161       2.103       1.054      1.0440E-02
  10    9.990       8.815       7.648       6.495       5.365       4.261       3.179       2.114       1.060      1.0492E-02

 HEAD WILL BE SAVED ON UNIT   51 AT END OF TIME STEP   34, STRESS PERIOD    3

 DRAWDOWN WILL BE SAVED ON UNIT   52 AT END OF TIME STEP   34, STRESS PERIOD    3
1
  VOLUMETRIC BUDGET FOR ENTIRE MODEL AT END OF TIME STEP   34, STRESS PERIOD   3
  ------------------------------------------------------------------------------

     CUMULATIVE VOLUMES      L**3       RATES FOR THIS TIME STEP      L**3/T
     ------------------                 ------------------------

           IN:                                      IN:
           ---                                      ---
             STORAGE =       25974.6660               STORAGE =           2.1996
       CONSTANT HEAD =           0.0000         CONSTANT HEAD =           0.0000
               WELLS =           0.0000                 WELLS =           0.0000
     HEAD DEP BOUNDS =       68232.7891       HEAD DEP BOUNDS =         608.4620

            TOTAL IN =       94207.4531              TOTAL IN =         610.6616

          OUT:                                     OUT:
          ----                                     ----
             STORAGE =           0.0000               STORAGE =           0.0000
       CONSTANT HEAD =           0.0000         CONSTANT HEAD =           0.0000
               WELLS =        3400.0000                 WELLS =         100.0000
     HEAD DEP BOUNDS =       90834.1875       HEAD DEP BOUNDS =         511.5236

           TOTAL OUT =       94234.1875             TOTAL OUT =         611.5236

            IN - OUT =         -26.7344              IN - OUT =          -0.8619

 PERCENT DISCREPANCY =          -0.03     PERCENT DISCREPANCY =          -0.14






         TIME SUMMARY AT END OF TIME STEP   34 IN STRESS PERIOD    3
                    SECONDS     MINUTES      HOURS       DAYS        YEARS
                    -----------------------------------------------------------
   TIME STEP LENGTH  86400.      1440.0      24.000      1.0000     2.73785E-03
 STRESS PERIOD TIME 2.93760E+06  48960.      816.00      34.000     9.30869E-02
         TOTAL TIME 1.16640E+07 1.94400E+05  3240.0      135.00     0.36961    
1

 SOLVING FOR HEAD 
     1 ITERATIONS FOR TIME STEP  35 IN STRESS PERIOD    3

 OUTPUT CONTROL FOR STRESS PERIOD    3   TIME STEP   35
    SAVE HEAD FOR ALL LAYERS
    SAVE DRAWDOWN FOR ALL LAYERS
    SAVE BUDGET
    PRINT HEAD FOR ALL LAYERS
    PRINT BUDGET
 UBDSV1 SAVING "         STORAGE" ON UNIT  53 AT TIME STEP 35, STRESS PERIOD   3
 UBDSV2 SAVING "   CONSTANT HEAD" ON UNIT  53 AT TIME STEP 35, STRESS PERIOD   3
 UBDSV1 SAVING "FLOW RIGHT FACE " ON UNIT  53 AT TIME STEP 35, STRESS PERIOD   3
 UBDSV1 SAVING "FLOW FRONT FACE " ON UNIT  53 AT TIME STEP 35, STRESS PERIOD   3
1
              HEAD IN LAYER   1 AT END OF TIME STEP  35 IN STRESS PERIOD    3
  ---------------------------------------------------------------------------

            1           2           3           4           5           6           7           8           9          10
 ........................................................................................................................
   1    9.990       8.789       7.596       6.425       5.285       4.185       3.118       2.073       1.039      1.0287E-02
   2    9.990       8.779       7.576       6.392       5.244       4.152       3.096       2.060       1.034      1.0233E-02
   3    9.990       8.761       7.535       6.321       5.148       4.080       3.054       2.038       1.024      1.0142E-02
   4    9.990       8.741       7.483       6.208       4.944       3.966       2.999       2.014       1.015      1.0050E-02
   5    9.990       8.730       7.446       6.082       4.455       3.840       2.962       2.002       1.011      1.0015E-02
   6    9.990       8.745       7.489       6.216       4.954       3.976       3.007       2.020       1.018      1.0081E-02
   7    9.990       8.769       7.549       6.339       5.168       4.100       3.071       2.051       1.031      1.0207E-02
   8    9.990       8.791       7.599       6.422       5.279       4.185       3.125       2.081       1.044      1.0338E-02
   9    9.990       8.807       7.631       6.472       5.338       4.236       3.161       2.102       1.054      1.0437E-02
  10    9.990       8.815       7.647       6.495       5.365       4.260       3.178       2.114       1.059      1.0489E-02

 HEAD WILL BE SAVED ON UNIT   51 AT END OF TIME STEP   35, STRESS PERIOD    3

 DRAWDOWN WILL BE SAVED ON UNIT   52 AT END OF TIME STEP   35, STRESS PERIOD    3
1
  VOLUMETRIC BUDGET FOR ENTIRE MODEL AT END OF TIME STEP   35, STRESS PERIOD   3
  ------------------------------------------------------------------------------

     CUMULATIVE VOLUMES      L**3       RATES FOR THIS TIME STEP      L**3/T
     ------------------                 ------------------------

           IN:                                      IN:
           ---                                      ---
             STORAGE =       25976.6895               STORAGE =           2.0225
       CONSTANT HEAD =           0.0000         CONSTANT HEAD =           0.0000
               WELLS =           0.0000                 WELLS =           0.0000
     HEAD DEP BOUNDS =       68841.3750       HEAD DEP BOUNDS =         608.5825

            TOTAL IN =       94818.0625              TOTAL IN =         610.6050

          OUT:                                     OUT:
          ----                                     ----
             STORAGE =           0.0000               STORAGE =           0.0000
       CONSTANT HEAD =           0.0000         CONSTANT HEAD =           0.0000
               WELLS =        3500.0000                 WELLS =         100.0000
     HEAD DEP BOUNDS =       91345.5859       HEAD DEP BOUNDS =         511.3998

           TOTAL OUT =       94845.5859             TOTAL OUT =         611.3998

            IN - OUT =         -27.5234              IN - OUT =          -0.7948

 PERCENT DISCREPANCY =          -0.03     PERCENT DISCREPANCY =          -0.13






         TIME SUMMARY AT END OF TIME STEP   35 IN STRESS PERIOD    3
                    SECONDS     MINUTES      HOURS       DAYS        YEARS
                    -----------------------------------------------------------
   TIME STEP LENGTH  86400.      1440.0      24.000      1.0000     2.73785E-03
 STRESS PERIOD TIME 3.02400E+06  50400.      840.00      35.000     9.58248E-02
         TOTAL TIME 1.17504E+07 1.95840E+05  3264.0      136.00     0.37235    
1

 SOLVING FOR HEAD 
     1 ITERATIONS FOR TIME STEP  36 IN STRESS PERIOD    3

 OUTPUT CONTROL FOR STRESS PERIOD    3   TIME STEP   36
    SAVE HEAD FOR ALL LAYERS
    SAVE DRAWDOWN FOR ALL LAYERS
    SAVE BUDGET
    PRINT HEAD FOR ALL LAYERS
    PRINT BUDGET
 UBDSV1 SAVING "         STORAGE" ON UNIT  53 AT TIME STEP 36, STRESS PERIOD   3
 UBDSV2 SAVING "   CONSTANT HEAD" ON UNIT  53 AT TIME STEP 36, STRESS PERIOD   3
 UBDSV1 SAVING "FLOW RIGHT FACE " ON UNIT  53 AT TIME STEP 36, STRESS PERIOD   3
 UBDSV1 SAVING "FLOW FRONT FACE " ON UNIT  53 AT TIME STEP 36, STRESS PERIOD   3
1
              HEAD IN LAYER   1 AT END OF TIME STEP  36 IN STRESS PERIOD    3
  ---------------------------------------------------------------------------

            1           2           3           4           5           6           7           8           9          10
 ........................................................................................................................
   1    9.990       8.788       7.596       6.424       5.284       4.185       3.118       2.072       1.039      1.0285E-02
   2    9.990       8.779       7.575       6.391       5.244       4.151       3.096       2.060       1.033      1.0231E-02
   3    9.990       8.761       7.535       6.320       5.147       4.079       3.053       2.038       1.024      1.0140E-02
   4    9.990       8.741       7.482       6.207       4.944       3.966       2.999       2.013       1.015      1.0048E-02
   5    9.990       8.730       7.446       6.081       4.455       3.840       2.962       2.002       1.011      1.0012E-02
   6    9.990       8.744       7.489       6.216       4.954       3.975       3.007       2.019       1.018      1.0079E-02
   7    9.990       8.769       7.549       6.339       5.168       4.100       3.070       2.050       1.031      1.0205E-02
   8    9.990       8.791       7.598       6.422       5.278       4.185       3.124       2.080       1.044      1.0335E-02
   9    9.990       8.807       7.631       6.471       5.337       4.236       3.160       2.102       1.054      1.0435E-02
  10    9.990       8.815       7.647       6.494       5.364       4.259       3.178       2.113       1.059      1.0487E-02

 HEAD WILL BE SAVED ON UNIT   51 AT END OF TIME STEP   36, STRESS PERIOD    3

 DRAWDOWN WILL BE SAVED ON UNIT   52 AT END OF TIME STEP   36, STRESS PERIOD    3
1
  VOLUMETRIC BUDGET FOR ENTIRE MODEL AT END OF TIME STEP   36, STRESS PERIOD   3
  ------------------------------------------------------------------------------

     CUMULATIVE VOLUMES      L**3       RATES FOR THIS TIME STEP      L**3/T
     ------------------                 ------------------------

           IN:                                      IN:
           ---                                      ---
             STORAGE =       25978.5488               STORAGE =           1.8601
       CONSTANT HEAD =           0.0000         CONSTANT HEAD =           0.0000
               WELLS =           0.0000                 WELLS =           0.0000
     HEAD DEP BOUNDS =       69450.0703       HEAD DEP BOUNDS =         608.6931

            TOTAL IN =       95428.6172              TOTAL IN =         610.5532

          OUT:                                     OUT:
          ----                                     ----
             STORAGE =           0.0000               STORAGE =           0.0000
       CONSTANT HEAD =           0.0000         CONSTANT HEAD =           0.0000
               WELLS =        3600.0000                 WELLS =         100.0000
     HEAD DEP BOUNDS =       91856.8750       HEAD DEP BOUNDS =         511.2860

           TOTAL OUT =       95456.8750             TOTAL OUT =         611.2860

            IN - OUT =         -28.2578              IN - OUT =          -0.7328

 PERCENT DISCREPANCY =          -0.03     PERCENT DISCREPANCY =          -0.12






         TIME SUMMARY AT END OF TIME STEP   36 IN STRESS PERIOD    3
                    SECONDS     MINUTES      HOURS       DAYS        YEARS
                    -----------------------------------------------------------
   TIME STEP LENGTH  86400.      1440.0      24.000      1.0000     2.73785E-03
 STRESS PERIOD TIME 3.11040E+06  51840.      864.00      36.000     9.85626E-02
         TOTAL TIME 1.18368E+07 1.97280E+05  3288.0      137.00     0.37509    
1

 SOLVING FOR HEAD 
     1 ITERATIONS FOR TIME STEP  37 IN STRESS PERIOD    3

 OUTPUT CONTROL FOR STRESS PERIOD    3   TIME STEP   37
    SAVE HEAD FOR ALL LAYERS
    SAVE DRAWDOWN FOR ALL LAYERS
    SAVE BUDGET
    PRINT HEAD FOR ALL LAYERS
    PRINT BUDGET
 UBDSV1 SAVING "         STORAGE" ON UNIT  53 AT TIME STEP 37, STRESS PERIOD   3
 UBDSV2 SAVING "   CONSTANT HEAD" ON UNIT  53 AT TIME STEP 37, STRESS PERIOD   3
 UBDSV1 SAVING "FLOW RIGHT FACE " ON UNIT  53 AT TIME STEP 37, STRESS PERIOD   3
 UBDSV1 SAVING "FLOW FRONT FACE " ON UNIT  53 AT TIME STEP 37, STRESS PERIOD   3
1
              HEAD IN LAYER   1 AT END OF TIME STEP  37 IN STRESS PERIOD    3
  ---------------------------------------------------------------------------

            1           2           3           4           5           6           7           8           9          10
 ........................................................................................................................
   1    9.990       8.788       7.596       6.424       5.284       4.184       3.117       2.072       1.039      1.0283E-02
   2    9.990       8.779       7.575       6.390       5.243       4.150       3.095       2.060       1.033      1.0229E-02
   3    9.990       8.761       7.534       6.320       5.146       4.079       3.053       2.037       1.024      1.0138E-02
   4    9.990       8.741       7.482       6.206       4.943       3.965       2.998       2.013       1.015      1.0046E-02
   5    9.990       8.730       7.445       6.080       4.454       3.839       2.961       2.001       1.011      1.0010E-02
   6    9.990       8.744       7.488       6.215       4.953       3.975       3.006       2.019       1.018      1.0077E-02
   7    9.990       8.768       7.548       6.338       5.167       4.099       3.070       2.050       1.030      1.0203E-02
   8    9.990       8.791       7.598       6.421       5.277       4.184       3.123       2.080       1.044      1.0333E-02
   9    9.990       8.807       7.631       6.471       5.337       4.235       3.159       2.102       1.054      1.0433E-02
  10    9.990       8.814       7.646       6.494       5.363       4.259       3.177       2.113       1.059      1.0485E-02

 HEAD WILL BE SAVED ON UNIT   51 AT END OF TIME STEP   37, STRESS PERIOD    3

 DRAWDOWN WILL BE SAVED ON UNIT   52 AT END OF TIME STEP   37, STRESS PERIOD    3
1
  VOLUMETRIC BUDGET FOR ENTIRE MODEL AT END OF TIME STEP   37, STRESS PERIOD   3
  ------------------------------------------------------------------------------

     CUMULATIVE VOLUMES      L**3       RATES FOR THIS TIME STEP      L**3/T
     ------------------                 ------------------------

           IN:                                      IN:
           ---                                      ---
             STORAGE =       25980.2598               STORAGE =           1.7109
       CONSTANT HEAD =           0.0000         CONSTANT HEAD =           0.0000
               WELLS =           0.0000                 WELLS =           0.0000
     HEAD DEP BOUNDS =       70058.8672       HEAD DEP BOUNDS =         608.7949

            TOTAL IN =       96039.1250              TOTAL IN =         610.5059

          OUT:                                     OUT:
          ----                                     ----
             STORAGE =           0.0000               STORAGE =           0.0000
       CONSTANT HEAD =           0.0000         CONSTANT HEAD =           0.0000
               WELLS =        3700.0000                 WELLS =         100.0000
     HEAD DEP BOUNDS =       92368.0547       HEAD DEP BOUNDS =         511.1813

           TOTAL OUT =       96068.0547             TOTAL OUT =         611.1813

            IN - OUT =         -28.9297              IN - OUT =          -0.6755

 PERCENT DISCREPANCY =          -0.03     PERCENT DISCREPANCY =          -0.11






         TIME SUMMARY AT END OF TIME STEP   37 IN STRESS PERIOD    3
                    SECONDS     MINUTES      HOURS       DAYS        YEARS
                    -----------------------------------------------------------
   TIME STEP LENGTH  86400.      1440.0      24.000      1.0000     2.73785E-03
 STRESS PERIOD TIME 3.19680E+06  53280.      888.00      37.000     0.10130    
         TOTAL TIME 1.19232E+07 1.98720E+05  3312.0      138.00     0.37782    
1

 SOLVING FOR HEAD 
     1 ITERATIONS FOR TIME STEP  38 IN STRESS PERIOD    3

 OUTPUT CONTROL FOR STRESS PERIOD    3   TIME STEP   38
    SAVE HEAD FOR ALL LAYERS
    SAVE DRAWDOWN FOR ALL LAYERS
    SAVE BUDGET
    PRINT HEAD FOR ALL LAYERS
    PRINT BUDGET
 UBDSV1 SAVING "         STORAGE" ON UNIT  53 AT TIME STEP 38, STRESS PERIOD   3
 UBDSV2 SAVING "   CONSTANT HEAD" ON UNIT  53 AT TIME STEP 38, STRESS PERIOD   3
 UBDSV1 SAVING "FLOW RIGHT FACE " ON UNIT  53 AT TIME STEP 38, STRESS PERIOD   3
 UBDSV1 SAVING "FLOW FRONT FACE " ON UNIT  53 AT TIME STEP 38, STRESS PERIOD   3
1
              HEAD IN LAYER   1 AT END OF TIME STEP  38 IN STRESS PERIOD    3
  ---------------------------------------------------------------------------

            1           2           3           4           5           6           7           8           9          10
 ........................................................................................................................
   1    9.990       8.788       7.595       6.423       5.283       4.184       3.117       2.072       1.038      1.0281E-02
   2    9.990       8.778       7.575       6.390       5.242       4.150       3.095       2.059       1.033      1.0227E-02
   3    9.990       8.761       7.534       6.319       5.146       4.078       3.052       2.037       1.024      1.0136E-02
   4    9.990       8.740       7.481       6.206       4.943       3.964       2.998       2.013       1.014      1.0044E-02
   5    9.990       8.730       7.445       6.080       4.454       3.838       2.961       2.001       1.011      1.0008E-02
   6    9.990       8.744       7.488       6.215       4.952       3.974       3.006       2.019       1.017      1.0075E-02
   7    9.990       8.768       7.548       6.338       5.167       4.099       3.069       2.050       1.030      1.0201E-02
   8    9.990       8.791       7.597       6.421       5.277       4.183       3.123       2.079       1.043      1.0331E-02
   9    9.990       8.806       7.630       6.470       5.336       4.234       3.159       2.101       1.054      1.0431E-02
  10    9.990       8.814       7.646       6.493       5.363       4.258       3.177       2.112       1.059      1.0483E-02

 HEAD WILL BE SAVED ON UNIT   51 AT END OF TIME STEP   38, STRESS PERIOD    3

 DRAWDOWN WILL BE SAVED ON UNIT   52 AT END OF TIME STEP   38, STRESS PERIOD    3
1
  VOLUMETRIC BUDGET FOR ENTIRE MODEL AT END OF TIME STEP   38, STRESS PERIOD   3
  ------------------------------------------------------------------------------

     CUMULATIVE VOLUMES      L**3       RATES FOR THIS TIME STEP      L**3/T
     ------------------                 ------------------------

           IN:                                      IN:
           ---                                      ---
             STORAGE =       25981.8340               STORAGE =           1.5737
       CONSTANT HEAD =           0.0000         CONSTANT HEAD =           0.0000
               WELLS =           0.0000                 WELLS =           0.0000
     HEAD DEP BOUNDS =       70667.7578       HEAD DEP BOUNDS =         608.8885

            TOTAL IN =       96649.5938              TOTAL IN =         610.4622

          OUT:                                     OUT:
          ----                                     ----
             STORAGE =           0.0000               STORAGE =           0.0000
       CONSTANT HEAD =           0.0000         CONSTANT HEAD =           0.0000
               WELLS =        3800.0000                 WELLS =         100.0000
     HEAD DEP BOUNDS =       92879.1406       HEAD DEP BOUNDS =         511.0851

           TOTAL OUT =       96679.1406             TOTAL OUT =         611.0851

            IN - OUT =         -29.5469              IN - OUT =          -0.6229

 PERCENT DISCREPANCY =          -0.03     PERCENT DISCREPANCY =          -0.10






         TIME SUMMARY AT END OF TIME STEP   38 IN STRESS PERIOD    3
                    SECONDS     MINUTES      HOURS       DAYS        YEARS
                    -----------------------------------------------------------
   TIME STEP LENGTH  86400.      1440.0      24.000      1.0000     2.73785E-03
 STRESS PERIOD TIME 3.28320E+06  54720.      912.00      38.000     0.10404    
         TOTAL TIME 1.20096E+07 2.00160E+05  3336.0      139.00     0.38056    
1

 SOLVING FOR HEAD 
     1 ITERATIONS FOR TIME STEP  39 IN STRESS PERIOD    3

 OUTPUT CONTROL FOR STRESS PERIOD    3   TIME STEP   39
    SAVE HEAD FOR ALL LAYERS
    SAVE DRAWDOWN FOR ALL LAYERS
    SAVE BUDGET
    PRINT HEAD FOR ALL LAYERS
    PRINT BUDGET
 UBDSV1 SAVING "         STORAGE" ON UNIT  53 AT TIME STEP 39, STRESS PERIOD   3
 UBDSV2 SAVING "   CONSTANT HEAD" ON UNIT  53 AT TIME STEP 39, STRESS PERIOD   3
 UBDSV1 SAVING "FLOW RIGHT FACE " ON UNIT  53 AT TIME STEP 39, STRESS PERIOD   3
 UBDSV1 SAVING "FLOW FRONT FACE " ON UNIT  53 AT TIME STEP 39, STRESS PERIOD   3
1
              HEAD IN LAYER   1 AT END OF TIME STEP  39 IN STRESS PERIOD    3
  ---------------------------------------------------------------------------

            1           2           3           4           5           6           7           8           9          10
 ........................................................................................................................
   1    9.990       8.788       7.595       6.423       5.283       4.183       3.116       2.071       1.038      1.0279E-02
   2    9.990       8.778       7.574       6.390       5.242       4.149       3.094       2.059       1.033      1.0225E-02
   3    9.990       8.761       7.534       6.319       5.145       4.078       3.052       2.037       1.023      1.0134E-02
   4    9.990       8.740       7.481       6.206       4.942       3.964       2.997       2.012       1.014      1.0042E-02
   5    9.990       8.730       7.445       6.079       4.453       3.838       2.960       2.000       1.011      1.0007E-02
   6    9.990       8.744       7.488       6.214       4.952       3.973       3.005       2.018       1.017      1.0073E-02
   7    9.990       8.768       7.548       6.337       5.166       4.098       3.069       2.049       1.030      1.0199E-02
   8    9.990       8.790       7.597       6.420       5.276       4.183       3.123       2.079       1.043      1.0329E-02
   9    9.990       8.806       7.630       6.470       5.336       4.234       3.159       2.101       1.053      1.0429E-02
  10    9.990       8.814       7.646       6.493       5.362       4.258       3.176       2.112       1.059      1.0482E-02

 HEAD WILL BE SAVED ON UNIT   51 AT END OF TIME STEP   39, STRESS PERIOD    3

 DRAWDOWN WILL BE SAVED ON UNIT   52 AT END OF TIME STEP   39, STRESS PERIOD    3
1
  VOLUMETRIC BUDGET FOR ENTIRE MODEL AT END OF TIME STEP   39, STRESS PERIOD   3
  ------------------------------------------------------------------------------

     CUMULATIVE VOLUMES      L**3       RATES FOR THIS TIME STEP      L**3/T
     ------------------                 ------------------------

           IN:                                      IN:
           ---                                      ---
             STORAGE =       25983.2812               STORAGE =           1.4477
       CONSTANT HEAD =           0.0000         CONSTANT HEAD =           0.0000
               WELLS =           0.0000                 WELLS =           0.0000
     HEAD DEP BOUNDS =       71276.7344       HEAD DEP BOUNDS =         608.9746

            TOTAL IN =       97260.0156              TOTAL IN =         610.4223

          OUT:                                     OUT:
          ----                                     ----
             STORAGE =           0.0000               STORAGE =           0.0000
       CONSTANT HEAD =           0.0000         CONSTANT HEAD =           0.0000
               WELLS =        3900.0000                 WELLS =         100.0000
     HEAD DEP BOUNDS =       93390.1406       HEAD DEP BOUNDS =         510.9965

           TOTAL OUT =       97290.1406             TOTAL OUT =         610.9965

            IN - OUT =         -30.1250              IN - OUT =          -0.5742

 PERCENT DISCREPANCY =          -0.03     PERCENT DISCREPANCY =          -0.09






         TIME SUMMARY AT END OF TIME STEP   39 IN STRESS PERIOD    3
                    SECONDS     MINUTES      HOURS       DAYS        YEARS
                    -----------------------------------------------------------
   TIME STEP LENGTH  86400.      1440.0      24.000      1.0000     2.73785E-03
 STRESS PERIOD TIME 3.36960E+06  56160.      936.00      39.000     0.10678    
         TOTAL TIME 1.20960E+07 2.01600E+05  3360.0      140.00     0.38330    
1

 SOLVING FOR HEAD 
     1 ITERATIONS FOR TIME STEP  40 IN STRESS PERIOD    3

 OUTPUT CONTROL FOR STRESS PERIOD    3   TIME STEP   40
    SAVE HEAD FOR ALL LAYERS
    SAVE DRAWDOWN FOR ALL LAYERS
    SAVE BUDGET
    PRINT HEAD FOR ALL LAYERS
    PRINT BUDGET
 UBDSV1 SAVING "         STORAGE" ON UNIT  53 AT TIME STEP 40, STRESS PERIOD   3
 UBDSV2 SAVING "   CONSTANT HEAD" ON UNIT  53 AT TIME STEP 40, STRESS PERIOD   3
 UBDSV1 SAVING "FLOW RIGHT FACE " ON UNIT  53 AT TIME STEP 40, STRESS PERIOD   3
 UBDSV1 SAVING "FLOW FRONT FACE " ON UNIT  53 AT TIME STEP 40, STRESS PERIOD   3
1
              HEAD IN LAYER   1 AT END OF TIME STEP  40 IN STRESS PERIOD    3
  ---------------------------------------------------------------------------

            1           2           3           4           5           6           7           8           9          10
 ........................................................................................................................
   1    9.990       8.788       7.595       6.422       5.282       4.183       3.116       2.071       1.038      1.0278E-02
   2    9.990       8.778       7.574       6.389       5.241       4.149       3.094       2.059       1.033      1.0224E-02
   3    9.990       8.760       7.533       6.318       5.145       4.077       3.051       2.036       1.023      1.0132E-02
   4    9.990       8.740       7.481       6.205       4.942       3.963       2.997       2.012       1.014      1.0040E-02
   5    9.990       8.729       7.444       6.079       4.453       3.837       2.960       2.000       1.010      1.0005E-02
   6    9.990       8.744       7.487       6.214       4.951       3.973       3.005       2.018       1.017      1.0071E-02
   7    9.990       8.768       7.547       6.337       5.166       4.098       3.069       2.049       1.030      1.0197E-02
   8    9.990       8.790       7.597       6.420       5.276       4.182       3.122       2.079       1.043      1.0328E-02
   9    9.990       8.806       7.630       6.469       5.335       4.233       3.158       2.101       1.053      1.0428E-02
  10    9.990       8.814       7.645       6.492       5.362       4.257       3.176       2.112       1.059      1.0480E-02

 HEAD WILL BE SAVED ON UNIT   51 AT END OF TIME STEP   40, STRESS PERIOD    3

 DRAWDOWN WILL BE SAVED ON UNIT   52 AT END OF TIME STEP   40, STRESS PERIOD    3
1
  VOLUMETRIC BUDGET FOR ENTIRE MODEL AT END OF TIME STEP   40, STRESS PERIOD   3
  ------------------------------------------------------------------------------

     CUMULATIVE VOLUMES      L**3       RATES FOR THIS TIME STEP      L**3/T
     ------------------                 ------------------------

           IN:                                      IN:
           ---                                      ---
             STORAGE =       25984.6133               STORAGE =           1.3317
       CONSTANT HEAD =           0.0000         CONSTANT HEAD =           0.0000
               WELLS =           0.0000                 WELLS =           0.0000
     HEAD DEP BOUNDS =       71885.7891       HEAD DEP BOUNDS =         609.0538

            TOTAL IN =       97870.4062              TOTAL IN =         610.3854

          OUT:                                     OUT:
          ----                                     ----
             STORAGE =           0.0000               STORAGE =           0.0000
       CONSTANT HEAD =           0.0000         CONSTANT HEAD =           0.0000
               WELLS =        4000.0000                 WELLS =         100.0000
     HEAD DEP BOUNDS =       93901.0547       HEAD DEP BOUNDS =         510.9151

           TOTAL OUT =       97901.0547             TOTAL OUT =         610.9151

            IN - OUT =         -30.6484              IN - OUT =          -0.5297

 PERCENT DISCREPANCY =          -0.03     PERCENT DISCREPANCY =          -0.09






         TIME SUMMARY AT END OF TIME STEP   40 IN STRESS PERIOD    3
                    SECONDS     MINUTES      HOURS       DAYS        YEARS
                    -----------------------------------------------------------
   TIME STEP LENGTH  86400.      1440.0      24.000      1.0000     2.73785E-03
 STRESS PERIOD TIME 3.45600E+06  57600.      960.00      40.000     0.10951    
         TOTAL TIME 1.21824E+07 2.03040E+05  3384.0      141.00     0.38604    
1

 SOLVING FOR HEAD 
     1 ITERATIONS FOR TIME STEP  41 IN STRESS PERIOD    3

 OUTPUT CONTROL FOR STRESS PERIOD    3   TIME STEP   41
    SAVE HEAD FOR ALL LAYERS
    SAVE DRAWDOWN FOR ALL LAYERS
    SAVE BUDGET
    PRINT HEAD FOR ALL LAYERS
    PRINT BUDGET
 UBDSV1 SAVING "         STORAGE" ON UNIT  53 AT TIME STEP 41, STRESS PERIOD   3
 UBDSV2 SAVING "   CONSTANT HEAD" ON UNIT  53 AT TIME STEP 41, STRESS PERIOD   3
 UBDSV1 SAVING "FLOW RIGHT FACE " ON UNIT  53 AT TIME STEP 41, STRESS PERIOD   3
 UBDSV1 SAVING "FLOW FRONT FACE " ON UNIT  53 AT TIME STEP 41, STRESS PERIOD   3
1
              HEAD IN LAYER   1 AT END OF TIME STEP  41 IN STRESS PERIOD    3
  ---------------------------------------------------------------------------

            1           2           3           4           5           6           7           8           9          10
 ........................................................................................................................
   1    9.990       8.787       7.594       6.422       5.282       4.182       3.116       2.071       1.038      1.0276E-02
   2    9.990       8.778       7.574       6.389       5.241       4.149       3.093       2.058       1.032      1.0222E-02
   3    9.990       8.760       7.533       6.318       5.144       4.077       3.051       2.036       1.023      1.0131E-02
   4    9.990       8.740       7.481       6.205       4.941       3.963       2.996       2.012       1.014      1.0039E-02
   5    9.990       8.729       7.444       6.079       4.452       3.837       2.960       2.000       1.010      1.0003E-02
   6    9.990       8.743       7.487       6.213       4.951       3.973       3.005       2.018       1.017      1.0070E-02
   7    9.990       8.768       7.547       6.336       5.165       4.097       3.068       2.049       1.030      1.0196E-02
   8    9.990       8.790       7.597       6.420       5.276       4.182       3.122       2.078       1.043      1.0326E-02
   9    9.990       8.806       7.629       6.469       5.335       4.233       3.158       2.100       1.053      1.0426E-02
  10    9.990       8.814       7.645       6.492       5.361       4.257       3.176       2.112       1.058      1.0479E-02

 HEAD WILL BE SAVED ON UNIT   51 AT END OF TIME STEP   41, STRESS PERIOD    3

 DRAWDOWN WILL BE SAVED ON UNIT   52 AT END OF TIME STEP   41, STRESS PERIOD    3
1
  VOLUMETRIC BUDGET FOR ENTIRE MODEL AT END OF TIME STEP   41, STRESS PERIOD   3
  ------------------------------------------------------------------------------

     CUMULATIVE VOLUMES      L**3       RATES FOR THIS TIME STEP      L**3/T
     ------------------                 ------------------------

           IN:                                      IN:
           ---                                      ---
             STORAGE =       25985.8379               STORAGE =           1.2249
       CONSTANT HEAD =           0.0000         CONSTANT HEAD =           0.0000
               WELLS =           0.0000                 WELLS =           0.0000
     HEAD DEP BOUNDS =       72494.9141       HEAD DEP BOUNDS =         609.1266

            TOTAL IN =       98480.7500              TOTAL IN =         610.3514

          OUT:                                     OUT:
          ----                                     ----
             STORAGE =           0.0000               STORAGE =           0.0000
       CONSTANT HEAD =           0.0000         CONSTANT HEAD =           0.0000
               WELLS =        4100.0000                 WELLS =         100.0000
     HEAD DEP BOUNDS =       94411.8984       HEAD DEP BOUNDS =         510.8402

           TOTAL OUT =       98511.8984             TOTAL OUT =         610.8402

            IN - OUT =         -31.1484              IN - OUT =          -0.4888

 PERCENT DISCREPANCY =          -0.03     PERCENT DISCREPANCY =          -0.08






         TIME SUMMARY AT END OF TIME STEP   41 IN STRESS PERIOD    3
                    SECONDS     MINUTES      HOURS       DAYS        YEARS
                    -----------------------------------------------------------
   TIME STEP LENGTH  86400.      1440.0      24.000      1.0000     2.73785E-03
 STRESS PERIOD TIME 3.54240E+06  59040.      984.00      41.000     0.11225    
         TOTAL TIME 1.22688E+07 2.04480E+05  3408.0      142.00     0.38877    
1

 SOLVING FOR HEAD 
     1 ITERATIONS FOR TIME STEP  42 IN STRESS PERIOD    3

 OUTPUT CONTROL FOR STRESS PERIOD    3   TIME STEP   42
    SAVE HEAD FOR ALL LAYERS
    SAVE DRAWDOWN FOR ALL LAYERS
    SAVE BUDGET
    PRINT HEAD FOR ALL LAYERS
    PRINT BUDGET
 UBDSV1 SAVING "         STORAGE" ON UNIT  53 AT TIME STEP 42, STRESS PERIOD   3
 UBDSV2 SAVING "   CONSTANT HEAD" ON UNIT  53 AT TIME STEP 42, STRESS PERIOD   3
 UBDSV1 SAVING "FLOW RIGHT FACE " ON UNIT  53 AT TIME STEP 42, STRESS PERIOD   3
 UBDSV1 SAVING "FLOW FRONT FACE " ON UNIT  53 AT TIME STEP 42, STRESS PERIOD   3
1
              HEAD IN LAYER   1 AT END OF TIME STEP  42 IN STRESS PERIOD    3
  ---------------------------------------------------------------------------

            1           2           3           4           5           6           7           8           9          10
 ........................................................................................................................
   1    9.990       8.787       7.594       6.421       5.281       4.182       3.115       2.070       1.038      1.0275E-02
   2    9.990       8.778       7.573       6.388       5.241       4.148       3.093       2.058       1.032      1.0221E-02
   3    9.990       8.760       7.533       6.318       5.144       4.076       3.050       2.036       1.023      1.0129E-02
   4    9.990       8.740       7.480       6.204       4.941       3.963       2.996       2.011       1.014      1.0037E-02
   5    9.989       8.729       7.444       6.078       4.452       3.837       2.959       2.000       1.010      1.0002E-02
   6    9.990       8.743       7.487       6.213       4.951       3.972       3.004       2.017       1.017      1.0068E-02
   7    9.990       8.768       7.547       6.336       5.165       4.097       3.068       2.048       1.030      1.0194E-02
   8    9.990       8.790       7.596       6.419       5.275       4.182       3.121       2.078       1.043      1.0325E-02
   9    9.990       8.806       7.629       6.469       5.335       4.233       3.157       2.100       1.053      1.0425E-02
  10    9.990       8.814       7.645       6.492       5.361       4.256       3.175       2.111       1.058      1.0477E-02

 HEAD WILL BE SAVED ON UNIT   51 AT END OF TIME STEP   42, STRESS PERIOD    3

 DRAWDOWN WILL BE SAVED ON UNIT   52 AT END OF TIME STEP   42, STRESS PERIOD    3
1
  VOLUMETRIC BUDGET FOR ENTIRE MODEL AT END OF TIME STEP   42, STRESS PERIOD   3
  ------------------------------------------------------------------------------

     CUMULATIVE VOLUMES      L**3       RATES FOR THIS TIME STEP      L**3/T
     ------------------                 ------------------------

           IN:                                      IN:
           ---                                      ---
             STORAGE =       25986.9648               STORAGE =           1.1269
       CONSTANT HEAD =           0.0000         CONSTANT HEAD =           0.0000
               WELLS =           0.0000                 WELLS =           0.0000
     HEAD DEP BOUNDS =       73104.1094       HEAD DEP BOUNDS =         609.1936

            TOTAL IN =       99091.0781              TOTAL IN =         610.3205

          OUT:                                     OUT:
          ----                                     ----
             STORAGE =           0.0000               STORAGE =           0.0000
       CONSTANT HEAD =           0.0000         CONSTANT HEAD =           0.0000
               WELLS =        4200.0000                 WELLS =         100.0000
     HEAD DEP BOUNDS =       94922.6719       HEAD DEP BOUNDS =         510.7713

           TOTAL OUT =       99122.6719             TOTAL OUT =         610.7713

            IN - OUT =         -31.5938              IN - OUT =          -0.4508

 PERCENT DISCREPANCY =          -0.03     PERCENT DISCREPANCY =          -0.07






         TIME SUMMARY AT END OF TIME STEP   42 IN STRESS PERIOD    3
                    SECONDS     MINUTES      HOURS       DAYS        YEARS
                    -----------------------------------------------------------
   TIME STEP LENGTH  86400.      1440.0      24.000      1.0000     2.73785E-03
 STRESS PERIOD TIME 3.62880E+06  60480.      1008.0      42.000     0.11499    
         TOTAL TIME 1.23552E+07 2.05920E+05  3432.0      143.00     0.39151    
1

 SOLVING FOR HEAD 
     1 ITERATIONS FOR TIME STEP  43 IN STRESS PERIOD    3

 OUTPUT CONTROL FOR STRESS PERIOD    3   TIME STEP   43
    SAVE HEAD FOR ALL LAYERS
    SAVE DRAWDOWN FOR ALL LAYERS
    SAVE BUDGET
    PRINT HEAD FOR ALL LAYERS
    PRINT BUDGET
 UBDSV1 SAVING "         STORAGE" ON UNIT  53 AT TIME STEP 43, STRESS PERIOD   3
 UBDSV2 SAVING "   CONSTANT HEAD" ON UNIT  53 AT TIME STEP 43, STRESS PERIOD   3
 UBDSV1 SAVING "FLOW RIGHT FACE " ON UNIT  53 AT TIME STEP 43, STRESS PERIOD   3
 UBDSV1 SAVING "FLOW FRONT FACE " ON UNIT  53 AT TIME STEP 43, STRESS PERIOD   3
1
              HEAD IN LAYER   1 AT END OF TIME STEP  43 IN STRESS PERIOD    3
  ---------------------------------------------------------------------------

            1           2           3           4           5           6           7           8           9          10
 ........................................................................................................................
   1    9.990       8.787       7.594       6.421       5.281       4.181       3.115       2.070       1.038      1.0273E-02
   2    9.990       8.778       7.573       6.388       5.240       4.148       3.093       2.058       1.032      1.0219E-02
   3    9.990       8.760       7.533       6.317       5.144       4.076       3.050       2.036       1.023      1.0128E-02
   4    9.990       8.740       7.480       6.204       4.940       3.962       2.996       2.011       1.014      1.0036E-02
   5    9.989       8.729       7.444       6.078       4.451       3.836       2.959       1.999       1.010      1.0001E-02
   6    9.990       8.743       7.487       6.213       4.950       3.972       3.004       2.017       1.017      1.0067E-02
   7    9.990       8.767       7.547       6.336       5.164       4.096       3.067       2.048       1.029      1.0193E-02
   8    9.990       8.790       7.596       6.419       5.275       4.181       3.121       2.078       1.043      1.0324E-02
   9    9.990       8.806       7.629       6.468       5.334       4.232       3.157       2.100       1.053      1.0424E-02
  10    9.990       8.814       7.645       6.491       5.361       4.256       3.175       2.111       1.058      1.0476E-02

 HEAD WILL BE SAVED ON UNIT   51 AT END OF TIME STEP   43, STRESS PERIOD    3

 DRAWDOWN WILL BE SAVED ON UNIT   52 AT END OF TIME STEP   43, STRESS PERIOD    3
1
  VOLUMETRIC BUDGET FOR ENTIRE MODEL AT END OF TIME STEP   43, STRESS PERIOD   3
  ------------------------------------------------------------------------------

     CUMULATIVE VOLUMES      L**3       RATES FOR THIS TIME STEP      L**3/T
     ------------------                 ------------------------

           IN:                                      IN:
           ---                                      ---
             STORAGE =       25988.0020               STORAGE =           1.0367
       CONSTANT HEAD =           0.0000         CONSTANT HEAD =           0.0000
               WELLS =           0.0000                 WELLS =           0.0000
     HEAD DEP BOUNDS =       73713.3672       HEAD DEP BOUNDS =         609.2590

            TOTAL IN =       99701.3672              TOTAL IN =         610.2957

          OUT:                                     OUT:
          ----                                     ----
             STORAGE =           0.0000               STORAGE =           0.0000
       CONSTANT HEAD =           0.0000         CONSTANT HEAD =           0.0000
               WELLS =        4300.0000                 WELLS =         100.0000
     HEAD DEP BOUNDS =       95433.3828       HEAD DEP BOUNDS =         510.7079

           TOTAL OUT =       99733.3828             TOTAL OUT =         610.7079

            IN - OUT =         -32.0156              IN - OUT =          -0.4122

 PERCENT DISCREPANCY =          -0.03     PERCENT DISCREPANCY =          -0.07






         TIME SUMMARY AT END OF TIME STEP   43 IN STRESS PERIOD    3
                    SECONDS     MINUTES      HOURS       DAYS        YEARS
                    -----------------------------------------------------------
   TIME STEP LENGTH  86400.      1440.0      24.000      1.0000     2.73785E-03
 STRESS PERIOD TIME 3.71520E+06  61920.      1032.0      43.000     0.11773    
         TOTAL TIME 1.24416E+07 2.07360E+05  3456.0      144.00     0.39425    
1

 SOLVING FOR HEAD 
     1 ITERATIONS FOR TIME STEP  44 IN STRESS PERIOD    3

 OUTPUT CONTROL FOR STRESS PERIOD    3   TIME STEP   44
    SAVE HEAD FOR ALL LAYERS
    SAVE DRAWDOWN FOR ALL LAYERS
    SAVE BUDGET
    PRINT HEAD FOR ALL LAYERS
    PRINT BUDGET
 UBDSV1 SAVING "         STORAGE" ON UNIT  53 AT TIME STEP 44, STRESS PERIOD   3
 UBDSV2 SAVING "   CONSTANT HEAD" ON UNIT  53 AT TIME STEP 44, STRESS PERIOD   3
 UBDSV1 SAVING "FLOW RIGHT FACE " ON UNIT  53 AT TIME STEP 44, STRESS PERIOD   3
 UBDSV1 SAVING "FLOW FRONT FACE " ON UNIT  53 AT TIME STEP 44, STRESS PERIOD   3
1
              HEAD IN LAYER   1 AT END OF TIME STEP  44 IN STRESS PERIOD    3
  ---------------------------------------------------------------------------

            1           2           3           4           5           6           7           8           9          10
 ........................................................................................................................
   1    9.990       8.787       7.594       6.421       5.281       4.181       3.115       2.070       1.038      1.0272E-02
   2    9.990       8.778       7.573       6.388       5.240       4.147       3.092       2.058       1.032      1.0218E-02
   3    9.990       8.760       7.532       6.317       5.143       4.076       3.050       2.035       1.023      1.0127E-02
   4    9.990       8.740       7.480       6.204       4.940       3.962       2.995       2.011       1.013      1.0035E-02
   5    9.989       8.729       7.443       6.078       4.451       3.836       2.959       1.999       1.010      9.9996E-03
   6    9.990       8.743       7.486       6.212       4.950       3.971       3.004       2.017       1.017      1.0066E-02
   7    9.990       8.767       7.546       6.335       5.164       4.096       3.067       2.048       1.029      1.0192E-02
   8    9.990       8.790       7.596       6.419       5.274       4.181       3.121       2.078       1.043      1.0323E-02
   9    9.990       8.805       7.629       6.468       5.334       4.232       3.157       2.100       1.053      1.0423E-02
  10    9.990       8.813       7.644       6.491       5.360       4.256       3.175       2.111       1.058      1.0475E-02

 HEAD WILL BE SAVED ON UNIT   51 AT END OF TIME STEP   44, STRESS PERIOD    3

 DRAWDOWN WILL BE SAVED ON UNIT   52 AT END OF TIME STEP   44, STRESS PERIOD    3
1
  VOLUMETRIC BUDGET FOR ENTIRE MODEL AT END OF TIME STEP   44, STRESS PERIOD   3
  ------------------------------------------------------------------------------

     CUMULATIVE VOLUMES      L**3       RATES FOR THIS TIME STEP      L**3/T
     ------------------                 ------------------------

           IN:                                      IN:
           ---                                      ---
             STORAGE =       25988.9551               STORAGE =           0.9534
       CONSTANT HEAD =           0.0000         CONSTANT HEAD =           0.0000
               WELLS =           0.0000                 WELLS =           0.0000
     HEAD DEP BOUNDS =       74322.6797       HEAD DEP BOUNDS =         609.3157

            TOTAL IN =      100311.6328              TOTAL IN =         610.2692

          OUT:                                     OUT:
          ----                                     ----
             STORAGE =           0.0000               STORAGE =           0.0000
       CONSTANT HEAD =           0.0000         CONSTANT HEAD =           0.0000
               WELLS =        4400.0000                 WELLS =         100.0000
     HEAD DEP BOUNDS =       95944.0312       HEAD DEP BOUNDS =         510.6496

           TOTAL OUT =      100344.0312             TOTAL OUT =         610.6495

            IN - OUT =         -32.3984              IN - OUT =          -0.3804

 PERCENT DISCREPANCY =          -0.03     PERCENT DISCREPANCY =          -0.06






         TIME SUMMARY AT END OF TIME STEP   44 IN STRESS PERIOD    3
                    SECONDS     MINUTES      HOURS       DAYS        YEARS
                    -----------------------------------------------------------
   TIME STEP LENGTH  86400.      1440.0      24.000      1.0000     2.73785E-03
 STRESS PERIOD TIME 3.80160E+06  63360.      1056.0      44.000     0.12047    
         TOTAL TIME 1.25280E+07 2.08800E+05  3480.0      145.00     0.39699    
1

 SOLVING FOR HEAD 
     1 ITERATIONS FOR TIME STEP  45 IN STRESS PERIOD    3

 OUTPUT CONTROL FOR STRESS PERIOD    3   TIME STEP   45
    SAVE HEAD FOR ALL LAYERS
    SAVE DRAWDOWN FOR ALL LAYERS
    SAVE BUDGET
    PRINT HEAD FOR ALL LAYERS
    PRINT BUDGET
 UBDSV1 SAVING "         STORAGE" ON UNIT  53 AT TIME STEP 45, STRESS PERIOD   3
 UBDSV2 SAVING "   CONSTANT HEAD" ON UNIT  53 AT TIME STEP 45, STRESS PERIOD   3
 UBDSV1 SAVING "FLOW RIGHT FACE " ON UNIT  53 AT TIME STEP 45, STRESS PERIOD   3
 UBDSV1 SAVING "FLOW FRONT FACE " ON UNIT  53 AT TIME STEP 45, STRESS PERIOD   3
1
              HEAD IN LAYER   1 AT END OF TIME STEP  45 IN STRESS PERIOD    3
  ---------------------------------------------------------------------------

            1           2           3           4           5           6           7           8           9          10
 ........................................................................................................................
   1    9.990       8.787       7.594       6.421       5.280       4.181       3.114       2.070       1.037      1.0271E-02
   2    9.990       8.777       7.573       6.388       5.240       4.147       3.092       2.057       1.032      1.0217E-02
   3    9.990       8.760       7.532       6.317       5.143       4.075       3.050       2.035       1.023      1.0126E-02
   4    9.990       8.739       7.480       6.204       4.940       3.962       2.995       2.011       1.013      1.0034E-02
   5    9.989       8.729       7.443       6.077       4.451       3.836       2.958       1.999       1.010      9.9985E-03
   6    9.990       8.743       7.486       6.212       4.950       3.971       3.003       2.017       1.016      1.0065E-02
   7    9.990       8.767       7.546       6.335       5.164       4.096       3.067       2.048       1.029      1.0191E-02
   8    9.990       8.790       7.596       6.418       5.274       4.181       3.121       2.078       1.042      1.0322E-02
   9    9.990       8.805       7.628       6.468       5.334       4.232       3.157       2.099       1.053      1.0422E-02
  10    9.990       8.813       7.644       6.491       5.360       4.255       3.174       2.111       1.058      1.0474E-02

 HEAD WILL BE SAVED ON UNIT   51 AT END OF TIME STEP   45, STRESS PERIOD    3

 DRAWDOWN WILL BE SAVED ON UNIT   52 AT END OF TIME STEP   45, STRESS PERIOD    3
1
  VOLUMETRIC BUDGET FOR ENTIRE MODEL AT END OF TIME STEP   45, STRESS PERIOD   3
  ------------------------------------------------------------------------------

     CUMULATIVE VOLUMES      L**3       RATES FOR THIS TIME STEP      L**3/T
     ------------------                 ------------------------

           IN:                                      IN:
           ---                                      ---
             STORAGE =       25989.8320               STORAGE =           0.8772
       CONSTANT HEAD =           0.0000         CONSTANT HEAD =           0.0000
               WELLS =           0.0000                 WELLS =           0.0000
     HEAD DEP BOUNDS =       74932.0469       HEAD DEP BOUNDS =         609.3679

            TOTAL IN =      100921.8750              TOTAL IN =         610.2451

          OUT:                                     OUT:
          ----                                     ----
             STORAGE =           0.0000               STORAGE =           0.0000
       CONSTANT HEAD =           0.0000         CONSTANT HEAD =           0.0000
               WELLS =        4500.0000                 WELLS =         100.0000
     HEAD DEP BOUNDS =       96454.6250       HEAD DEP BOUNDS =         510.5959

           TOTAL OUT =      100954.6250             TOTAL OUT =         610.5959

            IN - OUT =         -32.7500              IN - OUT =          -0.3509

 PERCENT DISCREPANCY =          -0.03     PERCENT DISCREPANCY =          -0.06






         TIME SUMMARY AT END OF TIME STEP   45 IN STRESS PERIOD    3
                    SECONDS     MINUTES      HOURS       DAYS        YEARS
                    -----------------------------------------------------------
   TIME STEP LENGTH  86400.      1440.0      24.000      1.0000     2.73785E-03
 STRESS PERIOD TIME 3.88800E+06  64800.      1080.0      45.000     0.12320    
         TOTAL TIME 1.26144E+07 2.10240E+05  3504.0      146.00     0.39973    
1

 SOLVING FOR HEAD 
     1 ITERATIONS FOR TIME STEP  46 IN STRESS PERIOD    3

 OUTPUT CONTROL FOR STRESS PERIOD    3   TIME STEP   46
    SAVE HEAD FOR ALL LAYERS
    SAVE DRAWDOWN FOR ALL LAYERS
    SAVE BUDGET
    PRINT HEAD FOR ALL LAYERS
    PRINT BUDGET
 UBDSV1 SAVING "         STORAGE" ON UNIT  53 AT TIME STEP 46, STRESS PERIOD   3
 UBDSV2 SAVING "   CONSTANT HEAD" ON UNIT  53 AT TIME STEP 46, STRESS PERIOD   3
 UBDSV1 SAVING "FLOW RIGHT FACE " ON UNIT  53 AT TIME STEP 46, STRESS PERIOD   3
 UBDSV1 SAVING "FLOW FRONT FACE " ON UNIT  53 AT TIME STEP 46, STRESS PERIOD   3
1
              HEAD IN LAYER   1 AT END OF TIME STEP  46 IN STRESS PERIOD    3
  ---------------------------------------------------------------------------

            1           2           3           4           5           6           7           8           9          10
 ........................................................................................................................
   1    9.990       8.787       7.593       6.420       5.280       4.181       3.114       2.070       1.037      1.0270E-02
   2    9.990       8.777       7.573       6.387       5.239       4.147       3.092       2.057       1.032      1.0216E-02
   3    9.990       8.760       7.532       6.316       5.143       4.075       3.049       2.035       1.023      1.0125E-02
   4    9.990       8.739       7.479       6.203       4.940       3.961       2.995       2.011       1.013      1.0033E-02
   5    9.989       8.729       7.443       6.077       4.450       3.835       2.958       1.999       1.010      9.9975E-03
   6    9.990       8.743       7.486       6.212       4.949       3.971       3.003       2.017       1.016      1.0064E-02
   7    9.990       8.767       7.546       6.335       5.164       4.095       3.067       2.048       1.029      1.0190E-02
   8    9.990       8.789       7.595       6.418       5.274       4.180       3.120       2.077       1.042      1.0321E-02
   9    9.990       8.805       7.628       6.468       5.333       4.231       3.156       2.099       1.053      1.0421E-02
  10    9.990       8.813       7.644       6.491       5.360       4.255       3.174       2.110       1.058      1.0473E-02

 HEAD WILL BE SAVED ON UNIT   51 AT END OF TIME STEP   46, STRESS PERIOD    3

 DRAWDOWN WILL BE SAVED ON UNIT   52 AT END OF TIME STEP   46, STRESS PERIOD    3
1
  VOLUMETRIC BUDGET FOR ENTIRE MODEL AT END OF TIME STEP   46, STRESS PERIOD   3
  ------------------------------------------------------------------------------

     CUMULATIVE VOLUMES      L**3       RATES FOR THIS TIME STEP      L**3/T
     ------------------                 ------------------------

           IN:                                      IN:
           ---                                      ---
             STORAGE =       25990.6387               STORAGE =           0.8067
       CONSTANT HEAD =           0.0000         CONSTANT HEAD =           0.0000
               WELLS =           0.0000                 WELLS =           0.0000
     HEAD DEP BOUNDS =       75541.4609       HEAD DEP BOUNDS =         609.4158

            TOTAL IN =      101532.1016              TOTAL IN =         610.2226

          OUT:                                     OUT:
          ----                                     ----
             STORAGE =           0.0000               STORAGE =           0.0000
       CONSTANT HEAD =           0.0000         CONSTANT HEAD =           0.0000
               WELLS =        4600.0000                 WELLS =         100.0000
     HEAD DEP BOUNDS =       96965.1719       HEAD DEP BOUNDS =         510.5466

           TOTAL OUT =      101565.1719             TOTAL OUT =         610.5466

            IN - OUT =         -33.0703              IN - OUT =          -0.3240

 PERCENT DISCREPANCY =          -0.03     PERCENT DISCREPANCY =          -0.05






         TIME SUMMARY AT END OF TIME STEP   46 IN STRESS PERIOD    3
                    SECONDS     MINUTES      HOURS       DAYS        YEARS
                    -----------------------------------------------------------
   TIME STEP LENGTH  86400.      1440.0      24.000      1.0000     2.73785E-03
 STRESS PERIOD TIME 3.97440E+06  66240.      1104.0      46.000     0.12594    
         TOTAL TIME 1.27008E+07 2.11680E+05  3528.0      147.00     0.40246    
1

 SOLVING FOR HEAD 
     1 ITERATIONS FOR TIME STEP  47 IN STRESS PERIOD    3

 OUTPUT CONTROL FOR STRESS PERIOD    3   TIME STEP   47
    SAVE HEAD FOR ALL LAYERS
    SAVE DRAWDOWN FOR ALL LAYERS
    SAVE BUDGET
    PRINT HEAD FOR ALL LAYERS
    PRINT BUDGET
 UBDSV1 SAVING "         STORAGE" ON UNIT  53 AT TIME STEP 47, STRESS PERIOD   3
 UBDSV2 SAVING "   CONSTANT HEAD" ON UNIT  53 AT TIME STEP 47, STRESS PERIOD   3
 UBDSV1 SAVING "FLOW RIGHT FACE " ON UNIT  53 AT TIME STEP 47, STRESS PERIOD   3
 UBDSV1 SAVING "FLOW FRONT FACE " ON UNIT  53 AT TIME STEP 47, STRESS PERIOD   3
1
              HEAD IN LAYER   1 AT END OF TIME STEP  47 IN STRESS PERIOD    3
  ---------------------------------------------------------------------------

            1           2           3           4           5           6           7           8           9          10
 ........................................................................................................................
   1    9.990       8.787       7.593       6.420       5.280       4.180       3.114       2.069       1.037      1.0269E-02
   2    9.990       8.777       7.572       6.387       5.239       4.147       3.092       2.057       1.032      1.0215E-02
   3    9.990       8.760       7.532       6.316       5.142       4.075       3.049       2.035       1.022      1.0124E-02
   4    9.990       8.739       7.479       6.203       4.939       3.961       2.995       2.010       1.013      1.0032E-02
   5    9.989       8.729       7.443       6.077       4.450       3.835       2.958       1.999       1.010      9.9966E-03
   6    9.990       8.743       7.486       6.212       4.949       3.971       3.003       2.016       1.016      1.0063E-02
   7    9.990       8.767       7.546       6.335       5.163       4.095       3.066       2.047       1.029      1.0189E-02
   8    9.990       8.789       7.595       6.418       5.274       4.180       3.120       2.077       1.042      1.0320E-02
   9    9.990       8.805       7.628       6.467       5.333       4.231       3.156       2.099       1.052      1.0420E-02
  10    9.990       8.813       7.644       6.490       5.360       4.255       3.174       2.110       1.058      1.0472E-02

 HEAD WILL BE SAVED ON UNIT   51 AT END OF TIME STEP   47, STRESS PERIOD    3

 DRAWDOWN WILL BE SAVED ON UNIT   52 AT END OF TIME STEP   47, STRESS PERIOD    3
1
  VOLUMETRIC BUDGET FOR ENTIRE MODEL AT END OF TIME STEP   47, STRESS PERIOD   3
  ------------------------------------------------------------------------------

     CUMULATIVE VOLUMES      L**3       RATES FOR THIS TIME STEP      L**3/T
     ------------------                 ------------------------

           IN:                                      IN:
           ---                                      ---
             STORAGE =       25991.3809               STORAGE =           0.7423
       CONSTANT HEAD =           0.0000         CONSTANT HEAD =           0.0000
               WELLS =           0.0000                 WELLS =           0.0000
     HEAD DEP BOUNDS =       76150.9219       HEAD DEP BOUNDS =         609.4600

            TOTAL IN =      102142.3047              TOTAL IN =         610.2023

          OUT:                                     OUT:
          ----                                     ----
             STORAGE =           0.0000               STORAGE =           0.0000
       CONSTANT HEAD =           0.0000         CONSTANT HEAD =           0.0000
               WELLS =        4700.0000                 WELLS =         100.0000
     HEAD DEP BOUNDS =       97475.6719       HEAD DEP BOUNDS =         510.5012

           TOTAL OUT =      102175.6719             TOTAL OUT =         610.5012

            IN - OUT =         -33.3672              IN - OUT =          -0.2990

 PERCENT DISCREPANCY =          -0.03     PERCENT DISCREPANCY =          -0.05






         TIME SUMMARY AT END OF TIME STEP   47 IN STRESS PERIOD    3
                    SECONDS     MINUTES      HOURS       DAYS        YEARS
                    -----------------------------------------------------------
   TIME STEP LENGTH  86400.      1440.0      24.000      1.0000     2.73785E-03
 STRESS PERIOD TIME 4.06080E+06  67680.      1128.0      47.000     0.12868    
         TOTAL TIME 1.27872E+07 2.13120E+05  3552.0      148.00     0.40520    
1

 SOLVING FOR HEAD 
     1 ITERATIONS FOR TIME STEP  48 IN STRESS PERIOD    3

 OUTPUT CONTROL FOR STRESS PERIOD    3   TIME STEP   48
    SAVE HEAD FOR ALL LAYERS
    SAVE DRAWDOWN FOR ALL LAYERS
    SAVE BUDGET
    PRINT HEAD FOR ALL LAYERS
    PRINT BUDGET
 UBDSV1 SAVING "         STORAGE" ON UNIT  53 AT TIME STEP 48, STRESS PERIOD   3
 UBDSV2 SAVING "   CONSTANT HEAD" ON UNIT  53 AT TIME STEP 48, STRESS PERIOD   3
 UBDSV1 SAVING "FLOW RIGHT FACE " ON UNIT  53 AT TIME STEP 48, STRESS PERIOD   3
 UBDSV1 SAVING "FLOW FRONT FACE " ON UNIT  53 AT TIME STEP 48, STRESS PERIOD   3
1
              HEAD IN LAYER   1 AT END OF TIME STEP  48 IN STRESS PERIOD    3
  ---------------------------------------------------------------------------

            1           2           3           4           5           6           7           8           9          10
 ........................................................................................................................
   1    9.990       8.787       7.593       6.420       5.280       4.180       3.114       2.069       1.037      1.0268E-02
   2    9.990       8.777       7.572       6.387       5.239       4.146       3.092       2.057       1.032      1.0214E-02
   3    9.990       8.759       7.532       6.316       5.142       4.075       3.049       2.035       1.022      1.0123E-02
   4    9.990       8.739       7.479       6.203       4.939       3.961       2.994       2.010       1.013      1.0031E-02
   5    9.989       8.729       7.443       6.077       4.450       3.835       2.958       1.998       1.009      9.9958E-03
   6    9.990       8.743       7.486       6.212       4.949       3.970       3.003       2.016       1.016      1.0062E-02
   7    9.990       8.767       7.546       6.335       5.163       4.095       3.066       2.047       1.029      1.0188E-02
   8    9.990       8.789       7.595       6.418       5.273       4.180       3.120       2.077       1.042      1.0319E-02
   9    9.990       8.805       7.628       6.467       5.333       4.231       3.156       2.099       1.052      1.0419E-02
  10    9.990       8.813       7.644       6.490       5.359       4.255       3.174       2.110       1.058      1.0472E-02

 HEAD WILL BE SAVED ON UNIT   51 AT END OF TIME STEP   48, STRESS PERIOD    3

 DRAWDOWN WILL BE SAVED ON UNIT   52 AT END OF TIME STEP   48, STRESS PERIOD    3
1
  VOLUMETRIC BUDGET FOR ENTIRE MODEL AT END OF TIME STEP   48, STRESS PERIOD   3
  ------------------------------------------------------------------------------

     CUMULATIVE VOLUMES      L**3       RATES FOR THIS TIME STEP      L**3/T
     ------------------                 ------------------------

           IN:                                      IN:
           ---                                      ---
             STORAGE =       25992.0645               STORAGE =           0.6828
       CONSTANT HEAD =           0.0000         CONSTANT HEAD =           0.0000
               WELLS =           0.0000                 WELLS =           0.0000
     HEAD DEP BOUNDS =       76760.4219       HEAD DEP BOUNDS =         609.5005

            TOTAL IN =      102752.4844              TOTAL IN =         610.1834

          OUT:                                     OUT:
          ----                                     ----
             STORAGE =           0.0000               STORAGE =           0.0000
       CONSTANT HEAD =           0.0000         CONSTANT HEAD =           0.0000
               WELLS =        4800.0000                 WELLS =         100.0000
     HEAD DEP BOUNDS =       97986.1328       HEAD DEP BOUNDS =         510.4594

           TOTAL OUT =      102786.1328             TOTAL OUT =         610.4595

            IN - OUT =         -33.6484              IN - OUT =          -0.2761

 PERCENT DISCREPANCY =          -0.03     PERCENT DISCREPANCY =          -0.05






         TIME SUMMARY AT END OF TIME STEP   48 IN STRESS PERIOD    3
                    SECONDS     MINUTES      HOURS       DAYS        YEARS
                    -----------------------------------------------------------
   TIME STEP LENGTH  86400.      1440.0      24.000      1.0000     2.73785E-03
 STRESS PERIOD TIME 4.14720E+06  69120.      1152.0      48.000     0.13142    
         TOTAL TIME 1.28736E+07 2.14560E+05  3576.0      149.00     0.40794    
1

 SOLVING FOR HEAD 
     1 ITERATIONS FOR TIME STEP  49 IN STRESS PERIOD    3

 OUTPUT CONTROL FOR STRESS PERIOD    3   TIME STEP   49
    SAVE HEAD FOR ALL LAYERS
    SAVE DRAWDOWN FOR ALL LAYERS
    SAVE BUDGET
    PRINT HEAD FOR ALL LAYERS
    PRINT BUDGET
 UBDSV1 SAVING "         STORAGE" ON UNIT  53 AT TIME STEP 49, STRESS PERIOD   3
 UBDSV2 SAVING "   CONSTANT HEAD" ON UNIT  53 AT TIME STEP 49, STRESS PERIOD   3
 UBDSV1 SAVING "FLOW RIGHT FACE " ON UNIT  53 AT TIME STEP 49, STRESS PERIOD   3
 UBDSV1 SAVING "FLOW FRONT FACE " ON UNIT  53 AT TIME STEP 49, STRESS PERIOD   3
1
              HEAD IN LAYER   1 AT END OF TIME STEP  49 IN STRESS PERIOD    3
  ---------------------------------------------------------------------------

            1           2           3           4           5           6           7           8           9          10
 ........................................................................................................................
   1    9.990       8.787       7.593       6.420       5.279       4.180       3.114       2.069       1.037      1.0267E-02
   2    9.990       8.777       7.572       6.387       5.239       4.146       3.091       2.057       1.032      1.0214E-02
   3    9.990       8.759       7.532       6.316       5.142       4.074       3.049       2.035       1.022      1.0122E-02
   4    9.990       8.739       7.479       6.203       4.939       3.961       2.994       2.010       1.013      1.0030E-02
   5    9.989       8.728       7.442       6.077       4.450       3.835       2.957       1.998       1.009      9.9950E-03
   6    9.990       8.743       7.486       6.211       4.949       3.970       3.003       2.016       1.016      1.0061E-02
   7    9.990       8.767       7.545       6.334       5.163       4.095       3.066       2.047       1.029      1.0187E-02
   8    9.990       8.789       7.595       6.417       5.273       4.180       3.120       2.077       1.042      1.0318E-02
   9    9.990       8.805       7.628       6.467       5.333       4.231       3.156       2.099       1.052      1.0418E-02
  10    9.990       8.813       7.644       6.490       5.359       4.255       3.173       2.110       1.058      1.0471E-02

 HEAD WILL BE SAVED ON UNIT   51 AT END OF TIME STEP   49, STRESS PERIOD    3

 DRAWDOWN WILL BE SAVED ON UNIT   52 AT END OF TIME STEP   49, STRESS PERIOD    3
1
  VOLUMETRIC BUDGET FOR ENTIRE MODEL AT END OF TIME STEP   49, STRESS PERIOD   3
  ------------------------------------------------------------------------------

     CUMULATIVE VOLUMES      L**3       RATES FOR THIS TIME STEP      L**3/T
     ------------------                 ------------------------

           IN:                                      IN:
           ---                                      ---
             STORAGE =       25992.6934               STORAGE =           0.6283
       CONSTANT HEAD =           0.0000         CONSTANT HEAD =           0.0000
               WELLS =           0.0000                 WELLS =           0.0000
     HEAD DEP BOUNDS =       77369.9609       HEAD DEP BOUNDS =         609.5378

            TOTAL IN =      103362.6562              TOTAL IN =         610.1661

          OUT:                                     OUT:
          ----                                     ----
             STORAGE =           0.0000               STORAGE =           0.0000
       CONSTANT HEAD =           0.0000         CONSTANT HEAD =           0.0000
               WELLS =        4900.0000                 WELLS =         100.0000
     HEAD DEP BOUNDS =       98496.5547       HEAD DEP BOUNDS =         510.4210

           TOTAL OUT =      103396.5547             TOTAL OUT =         610.4210

            IN - OUT =         -33.8984              IN - OUT =          -0.2549

 PERCENT DISCREPANCY =          -0.03     PERCENT DISCREPANCY =          -0.04






         TIME SUMMARY AT END OF TIME STEP   49 IN STRESS PERIOD    3
                    SECONDS     MINUTES      HOURS       DAYS        YEARS
                    -----------------------------------------------------------
   TIME STEP LENGTH  86400.      1440.0      24.000      1.0000     2.73785E-03
 STRESS PERIOD TIME 4.23360E+06  70560.      1176.0      49.000     0.13415    
         TOTAL TIME 1.29600E+07 2.16000E+05  3600.0      150.00     0.41068    
1

 SOLVING FOR HEAD 
     1 ITERATIONS FOR TIME STEP  50 IN STRESS PERIOD    3

 OUTPUT CONTROL FOR STRESS PERIOD    3   TIME STEP   50
    SAVE HEAD FOR ALL LAYERS
    SAVE DRAWDOWN FOR ALL LAYERS
    SAVE BUDGET
    PRINT HEAD FOR ALL LAYERS
    PRINT BUDGET
 UBDSV1 SAVING "         STORAGE" ON UNIT  53 AT TIME STEP 50, STRESS PERIOD   3
 UBDSV2 SAVING "   CONSTANT HEAD" ON UNIT  53 AT TIME STEP 50, STRESS PERIOD   3
 UBDSV1 SAVING "FLOW RIGHT FACE " ON UNIT  53 AT TIME STEP 50, STRESS PERIOD   3
 UBDSV1 SAVING "FLOW FRONT FACE " ON UNIT  53 AT TIME STEP 50, STRESS PERIOD   3
1
              HEAD IN LAYER   1 AT END OF TIME STEP  50 IN STRESS PERIOD    3
  ---------------------------------------------------------------------------

            1           2           3           4           5           6           7           8           9          10
 ........................................................................................................................
   1    9.990       8.787       7.593       6.420       5.279       4.180       3.113       2.069       1.037      1.0267E-02
   2    9.990       8.777       7.572       6.386       5.238       4.146       3.091       2.057       1.032      1.0213E-02
   3    9.990       8.759       7.532       6.316       5.142       4.074       3.049       2.034       1.022      1.0122E-02
   4    9.990       8.739       7.479       6.202       4.939       3.960       2.994       2.010       1.013      1.0029E-02
   5    9.989       8.728       7.442       6.076       4.450       3.834       2.957       1.998       1.009      9.9943E-03
   6    9.990       8.743       7.485       6.211       4.948       3.970       3.002       2.016       1.016      1.0061E-02
   7    9.990       8.767       7.545       6.334       5.163       4.095       3.066       2.047       1.029      1.0187E-02
   8    9.990       8.789       7.595       6.417       5.273       4.179       3.119       2.077       1.042      1.0317E-02
   9    9.990       8.805       7.628       6.467       5.332       4.230       3.156       2.099       1.052      1.0417E-02
  10    9.990       8.813       7.644       6.490       5.359       4.254       3.173       2.110       1.058      1.0470E-02

 HEAD WILL BE SAVED ON UNIT   51 AT END OF TIME STEP   50, STRESS PERIOD    3

 DRAWDOWN WILL BE SAVED ON UNIT   52 AT END OF TIME STEP   50, STRESS PERIOD    3
1
  VOLUMETRIC BUDGET FOR ENTIRE MODEL AT END OF TIME STEP   50, STRESS PERIOD   3
  ------------------------------------------------------------------------------

     CUMULATIVE VOLUMES      L**3       RATES FOR THIS TIME STEP      L**3/T
     ------------------                 ------------------------

           IN:                                      IN:
           ---                                      ---
             STORAGE =       25993.2715               STORAGE =           0.5781
       CONSTANT HEAD =           0.0000         CONSTANT HEAD =           0.0000
               WELLS =           0.0000                 WELLS =           0.0000
     HEAD DEP BOUNDS =       77979.5312       HEAD DEP BOUNDS =         609.5722

            TOTAL IN =      103972.8047              TOTAL IN =         610.1503

          OUT:                                     OUT:
          ----                                     ----
             STORAGE =           0.0000               STORAGE =           0.0000
       CONSTANT HEAD =           0.0000         CONSTANT HEAD =           0.0000
               WELLS =        5000.0000                 WELLS =         100.0000
     HEAD DEP BOUNDS =       99006.9375       HEAD DEP BOUNDS =         510.3857

           TOTAL OUT =      104006.9375             TOTAL OUT =         610.3857

            IN - OUT =         -34.1328              IN - OUT =          -0.2354

 PERCENT DISCREPANCY =          -0.03     PERCENT DISCREPANCY =          -0.04






         TIME SUMMARY AT END OF TIME STEP   50 IN STRESS PERIOD    3
                    SECONDS     MINUTES      HOURS       DAYS        YEARS
                    -----------------------------------------------------------
   TIME STEP LENGTH  86400.      1440.0      24.000      1.0000     2.73785E-03
 STRESS PERIOD TIME 4.32000E+06  72000.      1200.0      50.000     0.13689    
         TOTAL TIME 1.30464E+07 2.17440E+05  3624.0      151.00     0.41342    
1

 SOLVING FOR HEAD 
     1 ITERATIONS FOR TIME STEP  51 IN STRESS PERIOD    3

 OUTPUT CONTROL FOR STRESS PERIOD    3   TIME STEP   51
    SAVE HEAD FOR ALL LAYERS
    SAVE DRAWDOWN FOR ALL LAYERS
    SAVE BUDGET
    PRINT HEAD FOR ALL LAYERS
    PRINT BUDGET
 UBDSV1 SAVING "         STORAGE" ON UNIT  53 AT TIME STEP 51, STRESS PERIOD   3
 UBDSV2 SAVING "   CONSTANT HEAD" ON UNIT  53 AT TIME STEP 51, STRESS PERIOD   3
 UBDSV1 SAVING "FLOW RIGHT FACE " ON UNIT  53 AT TIME STEP 51, STRESS PERIOD   3
 UBDSV1 SAVING "FLOW FRONT FACE " ON UNIT  53 AT TIME STEP 51, STRESS PERIOD   3
1
              HEAD IN LAYER   1 AT END OF TIME STEP  51 IN STRESS PERIOD    3
  ---------------------------------------------------------------------------

            1           2           3           4           5           6           7           8           9          10
 ........................................................................................................................
   1    9.990       8.787       7.593       6.419       5.279       4.179       3.113       2.069       1.037      1.0266E-02
   2    9.990       8.777       7.572       6.386       5.238       4.146       3.091       2.056       1.031      1.0212E-02
   3    9.990       8.759       7.531       6.315       5.142       4.074       3.048       2.034       1.022      1.0121E-02
   4    9.990       8.739       7.479       6.202       4.938       3.960       2.994       2.010       1.013      1.0029E-02
   5    9.989       8.728       7.442       6.076       4.449       3.834       2.957       1.998       1.009      9.9936E-03
   6    9.990       8.742       7.485       6.211       4.948       3.970       3.002       2.016       1.016      1.0060E-02
   7    9.990       8.767       7.545       6.334       5.162       4.094       3.066       2.047       1.029      1.0186E-02
   8    9.990       8.789       7.595       6.417       5.273       4.179       3.119       2.077       1.042      1.0317E-02
   9    9.990       8.805       7.627       6.467       5.332       4.230       3.155       2.099       1.052      1.0417E-02
  10    9.990       8.813       7.643       6.490       5.359       4.254       3.173       2.110       1.057      1.0470E-02

 HEAD WILL BE SAVED ON UNIT   51 AT END OF TIME STEP   51, STRESS PERIOD    3

 DRAWDOWN WILL BE SAVED ON UNIT   52 AT END OF TIME STEP   51, STRESS PERIOD    3
1
  VOLUMETRIC BUDGET FOR ENTIRE MODEL AT END OF TIME STEP   51, STRESS PERIOD   3
  ------------------------------------------------------------------------------

     CUMULATIVE VOLUMES      L**3       RATES FOR THIS TIME STEP      L**3/T
     ------------------                 ------------------------

           IN:                                      IN:
           ---                                      ---
             STORAGE =       25993.8027               STORAGE =           0.5318
       CONSTANT HEAD =           0.0000         CONSTANT HEAD =           0.0000
               WELLS =           0.0000                 WELLS =           0.0000
     HEAD DEP BOUNDS =       78589.1328       HEAD DEP BOUNDS =         609.6039

            TOTAL IN =      104582.9375              TOTAL IN =         610.1356

          OUT:                                     OUT:
          ----                                     ----
             STORAGE =           0.0000               STORAGE =           0.0000
       CONSTANT HEAD =           0.0000         CONSTANT HEAD =           0.0000
               WELLS =        5100.0000                 WELLS =         100.0000
     HEAD DEP BOUNDS =       99517.2891       HEAD DEP BOUNDS =         510.3532

           TOTAL OUT =      104617.2891             TOTAL OUT =         610.3531

            IN - OUT =         -34.3516              IN - OUT =          -0.2175

 PERCENT DISCREPANCY =          -0.03     PERCENT DISCREPANCY =          -0.04






         TIME SUMMARY AT END OF TIME STEP   51 IN STRESS PERIOD    3
                    SECONDS     MINUTES      HOURS       DAYS        YEARS
                    -----------------------------------------------------------
   TIME STEP LENGTH  86400.      1440.0      24.000      1.0000     2.73785E-03
 STRESS PERIOD TIME 4.40640E+06  73440.      1224.0      51.000     0.13963    
         TOTAL TIME 1.31328E+07 2.18880E+05  3648.0      152.00     0.41615    
1

 SOLVING FOR HEAD 
     1 ITERATIONS FOR TIME STEP  52 IN STRESS PERIOD    3

 OUTPUT CONTROL FOR STRESS PERIOD    3   TIME STEP   52
    SAVE HEAD FOR ALL LAYERS
    SAVE DRAWDOWN FOR ALL LAYERS
    SAVE BUDGET
    PRINT HEAD FOR ALL LAYERS
    PRINT BUDGET
 UBDSV1 SAVING "         STORAGE" ON UNIT  53 AT TIME STEP 52, STRESS PERIOD   3
 UBDSV2 SAVING "   CONSTANT HEAD" ON UNIT  53 AT TIME STEP 52, STRESS PERIOD   3
 UBDSV1 SAVING "FLOW RIGHT FACE " ON UNIT  53 AT TIME STEP 52, STRESS PERIOD   3
 UBDSV1 SAVING "FLOW FRONT FACE " ON UNIT  53 AT TIME STEP 52, STRESS PERIOD   3
1
              HEAD IN LAYER   1 AT END OF TIME STEP  52 IN STRESS PERIOD    3
  ---------------------------------------------------------------------------

            1           2           3           4           5           6           7           8           9          10
 ........................................................................................................................
   1    9.990       8.786       7.593       6.419       5.279       4.179       3.113       2.069       1.037      1.0265E-02
   2    9.990       8.777       7.572       6.386       5.238       4.146       3.091       2.056       1.031      1.0212E-02
   3    9.990       8.759       7.531       6.315       5.141       4.074       3.048       2.034       1.022      1.0120E-02
   4    9.990       8.739       7.479       6.202       4.938       3.960       2.994       2.010       1.013      1.0028E-02
   5    9.989       8.728       7.442       6.076       4.449       3.834       2.957       1.998       1.009      9.9930E-03
   6    9.990       8.742       7.485       6.211       4.948       3.970       3.002       2.016       1.016      1.0059E-02
   7    9.990       8.767       7.545       6.334       5.162       4.094       3.066       2.047       1.029      1.0185E-02
   8    9.990       8.789       7.595       6.417       5.273       4.179       3.119       2.077       1.042      1.0316E-02
   9    9.990       8.805       7.627       6.467       5.332       4.230       3.155       2.098       1.052      1.0416E-02
  10    9.990       8.813       7.643       6.490       5.359       4.254       3.173       2.110       1.057      1.0469E-02

 HEAD WILL BE SAVED ON UNIT   51 AT END OF TIME STEP   52, STRESS PERIOD    3

 DRAWDOWN WILL BE SAVED ON UNIT   52 AT END OF TIME STEP   52, STRESS PERIOD    3
1
  VOLUMETRIC BUDGET FOR ENTIRE MODEL AT END OF TIME STEP   52, STRESS PERIOD   3
  ------------------------------------------------------------------------------

     CUMULATIVE VOLUMES      L**3       RATES FOR THIS TIME STEP      L**3/T
     ------------------                 ------------------------

           IN:                                      IN:
           ---                                      ---
             STORAGE =       25994.2910               STORAGE =           0.4891
       CONSTANT HEAD =           0.0000         CONSTANT HEAD =           0.0000
               WELLS =           0.0000                 WELLS =           0.0000
     HEAD DEP BOUNDS =       79198.7656       HEAD DEP BOUNDS =         609.6329

            TOTAL IN =      105193.0547              TOTAL IN =         610.1221

          OUT:                                     OUT:
          ----                                     ----
             STORAGE =           0.0000               STORAGE =           0.0000
       CONSTANT HEAD =           0.0000         CONSTANT HEAD =           0.0000
               WELLS =        5200.0000                 WELLS =         100.0000
     HEAD DEP BOUNDS =      100027.6094       HEAD DEP BOUNDS =         510.3233

           TOTAL OUT =      105227.6094             TOTAL OUT =         610.3232

            IN - OUT =         -34.5547              IN - OUT =          -0.2012

 PERCENT DISCREPANCY =          -0.03     PERCENT DISCREPANCY =          -0.03






         TIME SUMMARY AT END OF TIME STEP   52 IN STRESS PERIOD    3
                    SECONDS     MINUTES      HOURS       DAYS        YEARS
                    -----------------------------------------------------------
   TIME STEP LENGTH  86400.      1440.0      24.000      1.0000     2.73785E-03
 STRESS PERIOD TIME 4.49280E+06  74880.      1248.0      52.000     0.14237    
         TOTAL TIME 1.32192E+07 2.20320E+05  3672.0      153.00     0.41889    
1

 SOLVING FOR HEAD 
     1 ITERATIONS FOR TIME STEP  53 IN STRESS PERIOD    3

 OUTPUT CONTROL FOR STRESS PERIOD    3   TIME STEP   53
    SAVE HEAD FOR ALL LAYERS
    SAVE DRAWDOWN FOR ALL LAYERS
    SAVE BUDGET
    PRINT HEAD FOR ALL LAYERS
    PRINT BUDGET
 UBDSV1 SAVING "         STORAGE" ON UNIT  53 AT TIME STEP 53, STRESS PERIOD   3
 UBDSV2 SAVING "   CONSTANT HEAD" ON UNIT  53 AT TIME STEP 53, STRESS PERIOD   3
 UBDSV1 SAVING "FLOW RIGHT FACE " ON UNIT  53 AT TIME STEP 53, STRESS PERIOD   3
 UBDSV1 SAVING "FLOW FRONT FACE " ON UNIT  53 AT TIME STEP 53, STRESS PERIOD   3
1
              HEAD IN LAYER   1 AT END OF TIME STEP  53 IN STRESS PERIOD    3
  ---------------------------------------------------------------------------

            1           2           3           4           5           6           7           8           9          10
 ........................................................................................................................
   1    9.990       8.786       7.592       6.419       5.279       4.179       3.113       2.069       1.037      1.0265E-02
   2    9.990       8.777       7.572       6.386       5.238       4.145       3.091       2.056       1.031      1.0211E-02
   3    9.990       8.759       7.531       6.315       5.141       4.074       3.048       2.034       1.022      1.0120E-02
   4    9.990       8.739       7.479       6.202       4.938       3.960       2.994       2.010       1.013      1.0028E-02
   5    9.989       8.728       7.442       6.076       4.449       3.834       2.957       1.998       1.009      9.9924E-03
   6    9.990       8.742       7.485       6.211       4.948       3.969       3.002       2.016       1.016      1.0059E-02
   7    9.990       8.767       7.545       6.334       5.162       4.094       3.065       2.047       1.029      1.0185E-02
   8    9.990       8.789       7.595       6.417       5.272       4.179       3.119       2.076       1.042      1.0316E-02
   9    9.990       8.805       7.627       6.466       5.332       4.230       3.155       2.098       1.052      1.0416E-02
  10    9.990       8.813       7.643       6.489       5.358       4.254       3.173       2.110       1.057      1.0468E-02

 HEAD WILL BE SAVED ON UNIT   51 AT END OF TIME STEP   53, STRESS PERIOD    3

 DRAWDOWN WILL BE SAVED ON UNIT   52 AT END OF TIME STEP   53, STRESS PERIOD    3
1
  VOLUMETRIC BUDGET FOR ENTIRE MODEL AT END OF TIME STEP   53, STRESS PERIOD   3
  ------------------------------------------------------------------------------

     CUMULATIVE VOLUMES      L**3       RATES FOR THIS TIME STEP      L**3/T
     ------------------                 ------------------------

           IN:                                      IN:
           ---                                      ---
             STORAGE =       25994.7402               STORAGE =           0.4502
       CONSTANT HEAD =           0.0000         CONSTANT HEAD =           0.0000
               WELLS =           0.0000                 WELLS =           0.0000
     HEAD DEP BOUNDS =       79808.4297       HEAD DEP BOUNDS =         609.6636

            TOTAL IN =      105803.1719              TOTAL IN =         610.1138

          OUT:                                     OUT:
          ----                                     ----
             STORAGE =           0.0000               STORAGE =           0.0000
       CONSTANT HEAD =           0.0000         CONSTANT HEAD =           0.0000
               WELLS =        5300.0000                 WELLS =         100.0000
     HEAD DEP BOUNDS =      100537.9062       HEAD DEP BOUNDS =         510.2958

           TOTAL OUT =      105837.9062             TOTAL OUT =         610.2958

            IN - OUT =         -34.7344              IN - OUT =          -0.1820

 PERCENT DISCREPANCY =          -0.03     PERCENT DISCREPANCY =          -0.03






         TIME SUMMARY AT END OF TIME STEP   53 IN STRESS PERIOD    3
                    SECONDS     MINUTES      HOURS       DAYS        YEARS
                    -----------------------------------------------------------
   TIME STEP LENGTH  86400.      1440.0      24.000      1.0000     2.73785E-03
 STRESS PERIOD TIME 4.57920E+06  76320.      1272.0      53.000     0.14511    
         TOTAL TIME 1.33056E+07 2.21760E+05  3696.0      154.00     0.42163    
1

 SOLVING FOR HEAD 
     1 ITERATIONS FOR TIME STEP  54 IN STRESS PERIOD    3

 OUTPUT CONTROL FOR STRESS PERIOD    3   TIME STEP   54
    SAVE HEAD FOR ALL LAYERS
    SAVE DRAWDOWN FOR ALL LAYERS
    SAVE BUDGET
    PRINT HEAD FOR ALL LAYERS
    PRINT BUDGET
 UBDSV1 SAVING "         STORAGE" ON UNIT  53 AT TIME STEP 54, STRESS PERIOD   3
 UBDSV2 SAVING "   CONSTANT HEAD" ON UNIT  53 AT TIME STEP 54, STRESS PERIOD   3
 UBDSV1 SAVING "FLOW RIGHT FACE " ON UNIT  53 AT TIME STEP 54, STRESS PERIOD   3
 UBDSV1 SAVING "FLOW FRONT FACE " ON UNIT  53 AT TIME STEP 54, STRESS PERIOD   3
1
              HEAD IN LAYER   1 AT END OF TIME STEP  54 IN STRESS PERIOD    3
  ---------------------------------------------------------------------------

            1           2           3           4           5           6           7           8           9          10
 ........................................................................................................................
   1    9.990       8.786       7.592       6.419       5.279       4.179       3.113       2.069       1.037      1.0264E-02
   2    9.990       8.777       7.572       6.386       5.238       4.145       3.091       2.056       1.031      1.0211E-02
   3    9.990       8.759       7.531       6.315       5.141       4.074       3.048       2.034       1.022      1.0119E-02
   4    9.990       8.739       7.478       6.202       4.938       3.960       2.994       2.009       1.013      1.0027E-02
   5    9.989       8.728       7.442       6.076       4.449       3.834       2.957       1.998       1.009      9.9919E-03
   6    9.990       8.742       7.485       6.211       4.948       3.969       3.002       2.015       1.016      1.0058E-02
   7    9.990       8.767       7.545       6.334       5.162       4.094       3.065       2.046       1.029      1.0184E-02
   8    9.990       8.789       7.594       6.417       5.272       4.179       3.119       2.076       1.042      1.0315E-02
   9    9.990       8.805       7.627       6.466       5.332       4.230       3.155       2.098       1.052      1.0415E-02
  10    9.990       8.813       7.643       6.489       5.358       4.254       3.173       2.109       1.057      1.0468E-02

 HEAD WILL BE SAVED ON UNIT   51 AT END OF TIME STEP   54, STRESS PERIOD    3

 DRAWDOWN WILL BE SAVED ON UNIT   52 AT END OF TIME STEP   54, STRESS PERIOD    3
1
  VOLUMETRIC BUDGET FOR ENTIRE MODEL AT END OF TIME STEP   54, STRESS PERIOD   3
  ------------------------------------------------------------------------------

     CUMULATIVE VOLUMES      L**3       RATES FOR THIS TIME STEP      L**3/T
     ------------------                 ------------------------

           IN:                                      IN:
           ---                                      ---
             STORAGE =       25995.1543               STORAGE =           0.4139
       CONSTANT HEAD =           0.0000         CONSTANT HEAD =           0.0000
               WELLS =           0.0000                 WELLS =           0.0000
     HEAD DEP BOUNDS =       80418.1172       HEAD DEP BOUNDS =         609.6882

            TOTAL IN =      106413.2734              TOTAL IN =         610.1021

          OUT:                                     OUT:
          ----                                     ----
             STORAGE =           0.0000               STORAGE =           0.0000
       CONSTANT HEAD =           0.0000         CONSTANT HEAD =           0.0000
               WELLS =        5400.0000                 WELLS =         100.0000
     HEAD DEP BOUNDS =      101048.1797       HEAD DEP BOUNDS =         510.2704

           TOTAL OUT =      106448.1797             TOTAL OUT =         610.2704

            IN - OUT =         -34.9062              IN - OUT =          -0.1683

 PERCENT DISCREPANCY =          -0.03     PERCENT DISCREPANCY =          -0.03






         TIME SUMMARY AT END OF TIME STEP   54 IN STRESS PERIOD    3
                    SECONDS     MINUTES      HOURS       DAYS        YEARS
                    -----------------------------------------------------------
   TIME STEP LENGTH  86400.      1440.0      24.000      1.0000     2.73785E-03
 STRESS PERIOD TIME 4.66560E+06  77760.      1296.0      54.000     0.14784    
         TOTAL TIME 1.33920E+07 2.23200E+05  3720.0      155.00     0.42437    
1

 SOLVING FOR HEAD 
     1 ITERATIONS FOR TIME STEP  55 IN STRESS PERIOD    3

 OUTPUT CONTROL FOR STRESS PERIOD    3   TIME STEP   55
    SAVE HEAD FOR ALL LAYERS
    SAVE DRAWDOWN FOR ALL LAYERS
    SAVE BUDGET
    PRINT HEAD FOR ALL LAYERS
    PRINT BUDGET
 UBDSV1 SAVING "         STORAGE" ON UNIT  53 AT TIME STEP 55, STRESS PERIOD   3
 UBDSV2 SAVING "   CONSTANT HEAD" ON UNIT  53 AT TIME STEP 55, STRESS PERIOD   3
 UBDSV1 SAVING "FLOW RIGHT FACE " ON UNIT  53 AT TIME STEP 55, STRESS PERIOD   3
 UBDSV1 SAVING "FLOW FRONT FACE " ON UNIT  53 AT TIME STEP 55, STRESS PERIOD   3
1
              HEAD IN LAYER   1 AT END OF TIME STEP  55 IN STRESS PERIOD    3
  ---------------------------------------------------------------------------

            1           2           3           4           5           6           7           8           9          10
 ........................................................................................................................
   1    9.990       8.786       7.592       6.419       5.279       4.179       3.113       2.069       1.037      1.0264E-02
   2    9.990       8.777       7.571       6.386       5.238       4.145       3.090       2.056       1.031      1.0210E-02
   3    9.990       8.759       7.531       6.315       5.141       4.073       3.048       2.034       1.022      1.0119E-02
   4    9.990       8.739       7.478       6.202       4.938       3.960       2.993       2.009       1.013      1.0027E-02
   5    9.989       8.728       7.442       6.076       4.449       3.834       2.957       1.998       1.009      9.9914E-03
   6    9.990       8.742       7.485       6.210       4.948       3.969       3.002       2.015       1.016      1.0058E-02
   7    9.990       8.766       7.545       6.333       5.162       4.094       3.065       2.046       1.029      1.0184E-02
   8    9.990       8.789       7.594       6.417       5.272       4.179       3.119       2.076       1.042      1.0315E-02
   9    9.990       8.805       7.627       6.466       5.332       4.230       3.155       2.098       1.052      1.0415E-02
  10    9.990       8.813       7.643       6.489       5.358       4.254       3.173       2.109       1.057      1.0468E-02

 HEAD WILL BE SAVED ON UNIT   51 AT END OF TIME STEP   55, STRESS PERIOD    3

 DRAWDOWN WILL BE SAVED ON UNIT   52 AT END OF TIME STEP   55, STRESS PERIOD    3
1
  VOLUMETRIC BUDGET FOR ENTIRE MODEL AT END OF TIME STEP   55, STRESS PERIOD   3
  ------------------------------------------------------------------------------

     CUMULATIVE VOLUMES      L**3       RATES FOR THIS TIME STEP      L**3/T
     ------------------                 ------------------------

           IN:                                      IN:
           ---                                      ---
             STORAGE =       25995.5352               STORAGE =           0.3807
       CONSTANT HEAD =           0.0000         CONSTANT HEAD =           0.0000
               WELLS =           0.0000                 WELLS =           0.0000
     HEAD DEP BOUNDS =       81027.8281       HEAD DEP BOUNDS =         609.7108

            TOTAL IN =      107023.3594              TOTAL IN =         610.0916

          OUT:                                     OUT:
          ----                                     ----
             STORAGE =           0.0000               STORAGE =           0.0000
       CONSTANT HEAD =           0.0000         CONSTANT HEAD =           0.0000
               WELLS =        5500.0000                 WELLS =         100.0000
     HEAD DEP BOUNDS =      101558.4297       HEAD DEP BOUNDS =         510.2472

           TOTAL OUT =      107058.4297             TOTAL OUT =         610.2472

            IN - OUT =         -35.0703              IN - OUT =          -0.1556

 PERCENT DISCREPANCY =          -0.03     PERCENT DISCREPANCY =          -0.03






         TIME SUMMARY AT END OF TIME STEP   55 IN STRESS PERIOD    3
                    SECONDS     MINUTES      HOURS       DAYS        YEARS
                    -----------------------------------------------------------
   TIME STEP LENGTH  86400.      1440.0      24.000      1.0000     2.73785E-03
 STRESS PERIOD TIME 4.75200E+06  79200.      1320.0      55.000     0.15058    
         TOTAL TIME 1.34784E+07 2.24640E+05  3744.0      156.00     0.42710    
1

 SOLVING FOR HEAD 
     1 ITERATIONS FOR TIME STEP  56 IN STRESS PERIOD    3

 OUTPUT CONTROL FOR STRESS PERIOD    3   TIME STEP   56
    SAVE HEAD FOR ALL LAYERS
    SAVE DRAWDOWN FOR ALL LAYERS
    SAVE BUDGET
    PRINT HEAD FOR ALL LAYERS
    PRINT BUDGET
 UBDSV1 SAVING "         STORAGE" ON UNIT  53 AT TIME STEP 56, STRESS PERIOD   3
 UBDSV2 SAVING "   CONSTANT HEAD" ON UNIT  53 AT TIME STEP 56, STRESS PERIOD   3
 UBDSV1 SAVING "FLOW RIGHT FACE " ON UNIT  53 AT TIME STEP 56, STRESS PERIOD   3
 UBDSV1 SAVING "FLOW FRONT FACE " ON UNIT  53 AT TIME STEP 56, STRESS PERIOD   3
1
              HEAD IN LAYER   1 AT END OF TIME STEP  56 IN STRESS PERIOD    3
  ---------------------------------------------------------------------------

            1           2           3           4           5           6           7           8           9          10
 ........................................................................................................................
   1    9.990       8.786       7.592       6.419       5.278       4.179       3.113       2.068       1.037      1.0263E-02
   2    9.990       8.777       7.571       6.386       5.238       4.145       3.090       2.056       1.031      1.0210E-02
   3    9.990       8.759       7.531       6.315       5.141       4.073       3.048       2.034       1.022      1.0118E-02
   4    9.990       8.739       7.478       6.202       4.938       3.959       2.993       2.009       1.013      1.0026E-02
   5    9.989       8.728       7.442       6.076       4.449       3.833       2.956       1.998       1.009      9.9910E-03
   6    9.990       8.742       7.485       6.210       4.947       3.969       3.002       2.015       1.016      1.0057E-02
   7    9.990       8.766       7.545       6.333       5.162       4.094       3.065       2.046       1.029      1.0183E-02
   8    9.990       8.789       7.594       6.416       5.272       4.179       3.119       2.076       1.042      1.0314E-02
   9    9.990       8.805       7.627       6.466       5.331       4.230       3.155       2.098       1.052      1.0414E-02
  10    9.990       8.813       7.643       6.489       5.358       4.253       3.173       2.109       1.057      1.0467E-02

 HEAD WILL BE SAVED ON UNIT   51 AT END OF TIME STEP   56, STRESS PERIOD    3

 DRAWDOWN WILL BE SAVED ON UNIT   52 AT END OF TIME STEP   56, STRESS PERIOD    3
1
  VOLUMETRIC BUDGET FOR ENTIRE MODEL AT END OF TIME STEP   56, STRESS PERIOD   3
  ------------------------------------------------------------------------------

     CUMULATIVE VOLUMES      L**3       RATES FOR THIS TIME STEP      L**3/T
     ------------------                 ------------------------

           IN:                                      IN:
           ---                                      ---
             STORAGE =       25995.8848               STORAGE =           0.3502
       CONSTANT HEAD =           0.0000         CONSTANT HEAD =           0.0000
               WELLS =           0.0000                 WELLS =           0.0000
     HEAD DEP BOUNDS =       81637.5625       HEAD DEP BOUNDS =         609.7316

            TOTAL IN =      107633.4453              TOTAL IN =         610.0818

          OUT:                                     OUT:
          ----                                     ----
             STORAGE =           0.0000               STORAGE =           0.0000
       CONSTANT HEAD =           0.0000         CONSTANT HEAD =           0.0000
               WELLS =        5600.0000                 WELLS =         100.0000
     HEAD DEP BOUNDS =      102068.6562       HEAD DEP BOUNDS =         510.2257

           TOTAL OUT =      107668.6562             TOTAL OUT =         610.2257

            IN - OUT =         -35.2109              IN - OUT =          -0.1439

 PERCENT DISCREPANCY =          -0.03     PERCENT DISCREPANCY =          -0.02






         TIME SUMMARY AT END OF TIME STEP   56 IN STRESS PERIOD    3
                    SECONDS     MINUTES      HOURS       DAYS        YEARS
                    -----------------------------------------------------------
   TIME STEP LENGTH  86400.      1440.0      24.000      1.0000     2.73785E-03
 STRESS PERIOD TIME 4.83840E+06  80640.      1344.0      56.000     0.15332    
         TOTAL TIME 1.35648E+07 2.26080E+05  3768.0      157.00     0.42984    
1

 SOLVING FOR HEAD 
     1 ITERATIONS FOR TIME STEP  57 IN STRESS PERIOD    3

 OUTPUT CONTROL FOR STRESS PERIOD    3   TIME STEP   57
    SAVE HEAD FOR ALL LAYERS
    SAVE DRAWDOWN FOR ALL LAYERS
    SAVE BUDGET
    PRINT HEAD FOR ALL LAYERS
    PRINT BUDGET
 UBDSV1 SAVING "         STORAGE" ON UNIT  53 AT TIME STEP 57, STRESS PERIOD   3
 UBDSV2 SAVING "   CONSTANT HEAD" ON UNIT  53 AT TIME STEP 57, STRESS PERIOD   3
 UBDSV1 SAVING "FLOW RIGHT FACE " ON UNIT  53 AT TIME STEP 57, STRESS PERIOD   3
 UBDSV1 SAVING "FLOW FRONT FACE " ON UNIT  53 AT TIME STEP 57, STRESS PERIOD   3
1
              HEAD IN LAYER   1 AT END OF TIME STEP  57 IN STRESS PERIOD    3
  ---------------------------------------------------------------------------

            1           2           3           4           5           6           7           8           9          10
 ........................................................................................................................
   1    9.990       8.786       7.592       6.419       5.278       4.179       3.112       2.068       1.037      1.0263E-02
   2    9.990       8.777       7.571       6.386       5.237       4.145       3.090       2.056       1.031      1.0209E-02
   3    9.990       8.759       7.531       6.315       5.141       4.073       3.048       2.034       1.022      1.0118E-02
   4    9.990       8.739       7.478       6.202       4.938       3.959       2.993       2.009       1.013      1.0026E-02
   5    9.989       8.728       7.442       6.076       4.448       3.833       2.956       1.997       1.009      9.9906E-03
   6    9.990       8.742       7.485       6.210       4.947       3.969       3.001       2.015       1.016      1.0057E-02
   7    9.990       8.766       7.545       6.333       5.162       4.094       3.065       2.046       1.028      1.0183E-02
   8    9.990       8.789       7.594       6.416       5.272       4.178       3.119       2.076       1.042      1.0314E-02
   9    9.990       8.805       7.627       6.466       5.331       4.229       3.155       2.098       1.052      1.0414E-02
  10    9.990       8.813       7.643       6.489       5.358       4.253       3.172       2.109       1.057      1.0467E-02

 HEAD WILL BE SAVED ON UNIT   51 AT END OF TIME STEP   57, STRESS PERIOD    3

 DRAWDOWN WILL BE SAVED ON UNIT   52 AT END OF TIME STEP   57, STRESS PERIOD    3
1
  VOLUMETRIC BUDGET FOR ENTIRE MODEL AT END OF TIME STEP   57, STRESS PERIOD   3
  ------------------------------------------------------------------------------

     CUMULATIVE VOLUMES      L**3       RATES FOR THIS TIME STEP      L**3/T
     ------------------                 ------------------------

           IN:                                      IN:
           ---                                      ---
             STORAGE =       25996.2070               STORAGE =           0.3220
       CONSTANT HEAD =           0.0000         CONSTANT HEAD =           0.0000
               WELLS =           0.0000                 WELLS =           0.0000
     HEAD DEP BOUNDS =       82247.3125       HEAD DEP BOUNDS =         609.7508

            TOTAL IN =      108243.5156              TOTAL IN =         610.0728

          OUT:                                     OUT:
          ----                                     ----
             STORAGE =           0.0000               STORAGE =           0.0000
       CONSTANT HEAD =           0.0000         CONSTANT HEAD =           0.0000
               WELLS =        5700.0000                 WELLS =         100.0000
     HEAD DEP BOUNDS =      102578.8594       HEAD DEP BOUNDS =         510.2061

           TOTAL OUT =      108278.8594             TOTAL OUT =         610.2061

            IN - OUT =         -35.3438              IN - OUT =          -0.1333

 PERCENT DISCREPANCY =          -0.03     PERCENT DISCREPANCY =          -0.02






         TIME SUMMARY AT END OF TIME STEP   57 IN STRESS PERIOD    3
                    SECONDS     MINUTES      HOURS       DAYS        YEARS
                    -----------------------------------------------------------
   TIME STEP LENGTH  86400.      1440.0      24.000      1.0000     2.73785E-03
 STRESS PERIOD TIME 4.92480E+06  82080.      1368.0      57.000     0.15606    
         TOTAL TIME 1.36512E+07 2.27520E+05  3792.0      158.00     0.43258    
1

 SOLVING FOR HEAD 
     1 ITERATIONS FOR TIME STEP  58 IN STRESS PERIOD    3

 OUTPUT CONTROL FOR STRESS PERIOD    3   TIME STEP   58
    SAVE HEAD FOR ALL LAYERS
    SAVE DRAWDOWN FOR ALL LAYERS
    SAVE BUDGET
    PRINT HEAD FOR ALL LAYERS
    PRINT BUDGET
 UBDSV1 SAVING "         STORAGE" ON UNIT  53 AT TIME STEP 58, STRESS PERIOD   3
 UBDSV2 SAVING "   CONSTANT HEAD" ON UNIT  53 AT TIME STEP 58, STRESS PERIOD   3
 UBDSV1 SAVING "FLOW RIGHT FACE " ON UNIT  53 AT TIME STEP 58, STRESS PERIOD   3
 UBDSV1 SAVING "FLOW FRONT FACE " ON UNIT  53 AT TIME STEP 58, STRESS PERIOD   3
1
              HEAD IN LAYER   1 AT END OF TIME STEP  58 IN STRESS PERIOD    3
  ---------------------------------------------------------------------------

            1           2           3           4           5           6           7           8           9          10
 ........................................................................................................................
   1    9.990       8.786       7.592       6.419       5.278       4.178       3.112       2.068       1.037      1.0263E-02
   2    9.990       8.777       7.571       6.385       5.237       4.145       3.090       2.056       1.031      1.0209E-02
   3    9.990       8.759       7.531       6.315       5.141       4.073       3.048       2.034       1.022      1.0117E-02
   4    9.990       8.739       7.478       6.201       4.937       3.959       2.993       2.009       1.013      1.0025E-02
   5    9.989       8.728       7.442       6.075       4.448       3.833       2.956       1.997       1.009      9.9902E-03
   6    9.990       8.742       7.485       6.210       4.947       3.969       3.001       2.015       1.016      1.0057E-02
   7    9.990       8.766       7.545       6.333       5.161       4.093       3.065       2.046       1.028      1.0183E-02
   8    9.990       8.789       7.594       6.416       5.272       4.178       3.119       2.076       1.042      1.0313E-02
   9    9.990       8.805       7.627       6.466       5.331       4.229       3.155       2.098       1.052      1.0414E-02
  10    9.990       8.813       7.643       6.489       5.358       4.253       3.172       2.109       1.057      1.0466E-02

 HEAD WILL BE SAVED ON UNIT   51 AT END OF TIME STEP   58, STRESS PERIOD    3

 DRAWDOWN WILL BE SAVED ON UNIT   52 AT END OF TIME STEP   58, STRESS PERIOD    3
1
  VOLUMETRIC BUDGET FOR ENTIRE MODEL AT END OF TIME STEP   58, STRESS PERIOD   3
  ------------------------------------------------------------------------------

     CUMULATIVE VOLUMES      L**3       RATES FOR THIS TIME STEP      L**3/T
     ------------------                 ------------------------

           IN:                                      IN:
           ---                                      ---
             STORAGE =       25996.5039               STORAGE =           0.2966
       CONSTANT HEAD =           0.0000         CONSTANT HEAD =           0.0000
               WELLS =           0.0000                 WELLS =           0.0000
     HEAD DEP BOUNDS =       82857.0781       HEAD DEP BOUNDS =         609.7684

            TOTAL IN =      108853.5781              TOTAL IN =         610.0651

          OUT:                                     OUT:
          ----                                     ----
             STORAGE =           0.0000               STORAGE =           0.0000
       CONSTANT HEAD =           0.0000         CONSTANT HEAD =           0.0000
               WELLS =        5800.0000                 WELLS =         100.0000
     HEAD DEP BOUNDS =      103089.0469       HEAD DEP BOUNDS =         510.1879

           TOTAL OUT =      108889.0469             TOTAL OUT =         610.1879

            IN - OUT =         -35.4688              IN - OUT =          -0.1229

 PERCENT DISCREPANCY =          -0.03     PERCENT DISCREPANCY =          -0.02






         TIME SUMMARY AT END OF TIME STEP   58 IN STRESS PERIOD    3
                    SECONDS     MINUTES      HOURS       DAYS        YEARS
                    -----------------------------------------------------------
   TIME STEP LENGTH  86400.      1440.0      24.000      1.0000     2.73785E-03
 STRESS PERIOD TIME 5.01120E+06  83520.      1392.0      58.000     0.15880    
         TOTAL TIME 1.37376E+07 2.28960E+05  3816.0      159.00     0.43532    
1

 SOLVING FOR HEAD 
     1 ITERATIONS FOR TIME STEP  59 IN STRESS PERIOD    3

 OUTPUT CONTROL FOR STRESS PERIOD    3   TIME STEP   59
    SAVE HEAD FOR ALL LAYERS
    SAVE DRAWDOWN FOR ALL LAYERS
    SAVE BUDGET
    PRINT HEAD FOR ALL LAYERS
    PRINT BUDGET
 UBDSV1 SAVING "         STORAGE" ON UNIT  53 AT TIME STEP 59, STRESS PERIOD   3
 UBDSV2 SAVING "   CONSTANT HEAD" ON UNIT  53 AT TIME STEP 59, STRESS PERIOD   3
 UBDSV1 SAVING "FLOW RIGHT FACE " ON UNIT  53 AT TIME STEP 59, STRESS PERIOD   3
 UBDSV1 SAVING "FLOW FRONT FACE " ON UNIT  53 AT TIME STEP 59, STRESS PERIOD   3
1
              HEAD IN LAYER   1 AT END OF TIME STEP  59 IN STRESS PERIOD    3
  ---------------------------------------------------------------------------

            1           2           3           4           5           6           7           8           9          10
 ........................................................................................................................
   1    9.990       8.786       7.592       6.419       5.278       4.178       3.112       2.068       1.037      1.0262E-02
   2    9.990       8.777       7.571       6.385       5.237       4.145       3.090       2.056       1.031      1.0209E-02
   3    9.990       8.759       7.531       6.315       5.141       4.073       3.047       2.034       1.022      1.0117E-02
   4    9.990       8.739       7.478       6.201       4.937       3.959       2.993       2.009       1.012      1.0025E-02
   5    9.989       8.728       7.442       6.075       4.448       3.833       2.956       1.997       1.009      9.9899E-03
   6    9.990       8.742       7.485       6.210       4.947       3.969       3.001       2.015       1.016      1.0056E-02
   7    9.990       8.766       7.545       6.333       5.161       4.093       3.065       2.046       1.028      1.0182E-02
   8    9.990       8.789       7.594       6.416       5.272       4.178       3.118       2.076       1.042      1.0313E-02
   9    9.990       8.805       7.627       6.466       5.331       4.229       3.155       2.098       1.052      1.0413E-02
  10    9.990       8.813       7.643       6.489       5.358       4.253       3.172       2.109       1.057      1.0466E-02

 HEAD WILL BE SAVED ON UNIT   51 AT END OF TIME STEP   59, STRESS PERIOD    3

 DRAWDOWN WILL BE SAVED ON UNIT   52 AT END OF TIME STEP   59, STRESS PERIOD    3
1
  VOLUMETRIC BUDGET FOR ENTIRE MODEL AT END OF TIME STEP   59, STRESS PERIOD   3
  ------------------------------------------------------------------------------

     CUMULATIVE VOLUMES      L**3       RATES FOR THIS TIME STEP      L**3/T
     ------------------                 ------------------------

           IN:                                      IN:
           ---                                      ---
             STORAGE =       25996.7773               STORAGE =           0.2726
       CONSTANT HEAD =           0.0000         CONSTANT HEAD =           0.0000
               WELLS =           0.0000                 WELLS =           0.0000
     HEAD DEP BOUNDS =       83466.8594       HEAD DEP BOUNDS =         609.7846

            TOTAL IN =      109463.6406              TOTAL IN =         610.0573

          OUT:                                     OUT:
          ----                                     ----
             STORAGE =           0.0000               STORAGE =           0.0000
       CONSTANT HEAD =           0.0000         CONSTANT HEAD =           0.0000
               WELLS =        5900.0000                 WELLS =         100.0000
     HEAD DEP BOUNDS =      103599.2188       HEAD DEP BOUNDS =         510.1712

           TOTAL OUT =      109499.2188             TOTAL OUT =         610.1713

            IN - OUT =         -35.5781              IN - OUT =          -0.1140

 PERCENT DISCREPANCY =          -0.03     PERCENT DISCREPANCY =          -0.02






         TIME SUMMARY AT END OF TIME STEP   59 IN STRESS PERIOD    3
                    SECONDS     MINUTES      HOURS       DAYS        YEARS
                    -----------------------------------------------------------
   TIME STEP LENGTH  86400.      1440.0      24.000      1.0000     2.73785E-03
 STRESS PERIOD TIME 5.09760E+06  84960.      1416.0      59.000     0.16153    
         TOTAL TIME 1.38240E+07 2.30400E+05  3840.0      160.00     0.43806    
1

 SOLVING FOR HEAD 
     1 ITERATIONS FOR TIME STEP  60 IN STRESS PERIOD    3

 OUTPUT CONTROL FOR STRESS PERIOD    3   TIME STEP   60
    SAVE HEAD FOR ALL LAYERS
    SAVE DRAWDOWN FOR ALL LAYERS
    SAVE BUDGET
    PRINT HEAD FOR ALL LAYERS
    PRINT BUDGET
 UBDSV1 SAVING "         STORAGE" ON UNIT  53 AT TIME STEP 60, STRESS PERIOD   3
 UBDSV2 SAVING "   CONSTANT HEAD" ON UNIT  53 AT TIME STEP 60, STRESS PERIOD   3
 UBDSV1 SAVING "FLOW RIGHT FACE " ON UNIT  53 AT TIME STEP 60, STRESS PERIOD   3
 UBDSV1 SAVING "FLOW FRONT FACE " ON UNIT  53 AT TIME STEP 60, STRESS PERIOD   3
1
              HEAD IN LAYER   1 AT END OF TIME STEP  60 IN STRESS PERIOD    3
  ---------------------------------------------------------------------------

            1           2           3           4           5           6           7           8           9          10
 ........................................................................................................................
   1    9.990       8.786       7.592       6.418       5.278       4.178       3.112       2.068       1.037      1.0262E-02
   2    9.990       8.777       7.571       6.385       5.237       4.145       3.090       2.056       1.031      1.0208E-02
   3    9.990       8.759       7.531       6.314       5.140       4.073       3.047       2.034       1.022      1.0117E-02
   4    9.990       8.739       7.478       6.201       4.937       3.959       2.993       2.009       1.012      1.0025E-02
   5    9.989       8.728       7.441       6.075       4.448       3.833       2.956       1.997       1.009      9.9896E-03
   6    9.990       8.742       7.485       6.210       4.947       3.969       3.001       2.015       1.016      1.0056E-02
   7    9.990       8.766       7.544       6.333       5.161       4.093       3.065       2.046       1.028      1.0182E-02
   8    9.990       8.789       7.594       6.416       5.272       4.178       3.118       2.076       1.042      1.0313E-02
   9    9.990       8.805       7.627       6.466       5.331       4.229       3.154       2.098       1.052      1.0413E-02
  10    9.990       8.812       7.643       6.489       5.358       4.253       3.172       2.109       1.057      1.0466E-02

 HEAD WILL BE SAVED ON UNIT   51 AT END OF TIME STEP   60, STRESS PERIOD    3

 DRAWDOWN WILL BE SAVED ON UNIT   52 AT END OF TIME STEP   60, STRESS PERIOD    3
1
  VOLUMETRIC BUDGET FOR ENTIRE MODEL AT END OF TIME STEP   60, STRESS PERIOD   3
  ------------------------------------------------------------------------------

     CUMULATIVE VOLUMES      L**3       RATES FOR THIS TIME STEP      L**3/T
     ------------------                 ------------------------

           IN:                                      IN:
           ---                                      ---
             STORAGE =       25997.0273               STORAGE =           0.2509
       CONSTANT HEAD =           0.0000         CONSTANT HEAD =           0.0000
               WELLS =           0.0000                 WELLS =           0.0000
     HEAD DEP BOUNDS =       84076.6641       HEAD DEP BOUNDS =         609.8033

            TOTAL IN =      110073.6875              TOTAL IN =         610.0543

          OUT:                                     OUT:
          ----                                     ----
             STORAGE =           0.0000               STORAGE =           0.0000
       CONSTANT HEAD =           0.0000         CONSTANT HEAD =           0.0000
               WELLS =        6000.0000                 WELLS =         100.0000
     HEAD DEP BOUNDS =      104109.3750       HEAD DEP BOUNDS =         510.1559

           TOTAL OUT =      110109.3750             TOTAL OUT =         610.1559

            IN - OUT =         -35.6875              IN - OUT =          -0.1016

 PERCENT DISCREPANCY =          -0.03     PERCENT DISCREPANCY =          -0.02






         TIME SUMMARY AT END OF TIME STEP   60 IN STRESS PERIOD    3
                    SECONDS     MINUTES      HOURS       DAYS        YEARS
                    -----------------------------------------------------------
   TIME STEP LENGTH  86400.      1440.0      24.000      1.0000     2.73785E-03
 STRESS PERIOD TIME 5.18400E+06  86400.      1440.0      60.000     0.16427    
         TOTAL TIME 1.39104E+07 2.31840E+05  3864.0      161.00     0.44079    
1

 SOLVING FOR HEAD 
     1 ITERATIONS FOR TIME STEP  61 IN STRESS PERIOD    3

 OUTPUT CONTROL FOR STRESS PERIOD    3   TIME STEP   61
    SAVE HEAD FOR ALL LAYERS
    SAVE DRAWDOWN FOR ALL LAYERS
    SAVE BUDGET
    PRINT HEAD FOR ALL LAYERS
    PRINT BUDGET
 UBDSV1 SAVING "         STORAGE" ON UNIT  53 AT TIME STEP 61, STRESS PERIOD   3
 UBDSV2 SAVING "   CONSTANT HEAD" ON UNIT  53 AT TIME STEP 61, STRESS PERIOD   3
 UBDSV1 SAVING "FLOW RIGHT FACE " ON UNIT  53 AT TIME STEP 61, STRESS PERIOD   3
 UBDSV1 SAVING "FLOW FRONT FACE " ON UNIT  53 AT TIME STEP 61, STRESS PERIOD   3
1
              HEAD IN LAYER   1 AT END OF TIME STEP  61 IN STRESS PERIOD    3
  ---------------------------------------------------------------------------

            1           2           3           4           5           6           7           8           9          10
 ........................................................................................................................
   1    9.990       8.786       7.592       6.418       5.278       4.178       3.112       2.068       1.036      1.0262E-02
   2    9.990       8.776       7.571       6.385       5.237       4.145       3.090       2.056       1.031      1.0208E-02
   3    9.990       8.759       7.531       6.314       5.140       4.073       3.047       2.033       1.022      1.0117E-02
   4    9.990       8.739       7.478       6.201       4.937       3.959       2.993       2.009       1.012      1.0025E-02
   5    9.989       8.728       7.441       6.075       4.448       3.833       2.956       1.997       1.009      9.9893E-03
   6    9.990       8.742       7.484       6.210       4.947       3.969       3.001       2.015       1.016      1.0056E-02
   7    9.990       8.766       7.544       6.333       5.161       4.093       3.065       2.046       1.028      1.0182E-02
   8    9.990       8.789       7.594       6.416       5.272       4.178       3.118       2.076       1.042      1.0313E-02
   9    9.990       8.805       7.627       6.466       5.331       4.229       3.154       2.098       1.052      1.0413E-02
  10    9.990       8.812       7.643       6.489       5.358       4.253       3.172       2.109       1.057      1.0466E-02

 HEAD WILL BE SAVED ON UNIT   51 AT END OF TIME STEP   61, STRESS PERIOD    3

 DRAWDOWN WILL BE SAVED ON UNIT   52 AT END OF TIME STEP   61, STRESS PERIOD    3
1
  VOLUMETRIC BUDGET FOR ENTIRE MODEL AT END OF TIME STEP   61, STRESS PERIOD   3
  ------------------------------------------------------------------------------

     CUMULATIVE VOLUMES      L**3       RATES FOR THIS TIME STEP      L**3/T
     ------------------                 ------------------------

           IN:                                      IN:
           ---                                      ---
             STORAGE =       25997.2578               STORAGE =           0.2307
       CONSTANT HEAD =           0.0000         CONSTANT HEAD =           0.0000
               WELLS =           0.0000                 WELLS =           0.0000
     HEAD DEP BOUNDS =       84686.4844       HEAD DEP BOUNDS =         609.8171

            TOTAL IN =      110683.7422              TOTAL IN =         610.0478

          OUT:                                     OUT:
          ----                                     ----
             STORAGE =           0.0000               STORAGE =           0.0000
       CONSTANT HEAD =           0.0000         CONSTANT HEAD =           0.0000
               WELLS =        6100.0000                 WELLS =         100.0000
     HEAD DEP BOUNDS =      104619.5156       HEAD DEP BOUNDS =         510.1418

           TOTAL OUT =      110719.5156             TOTAL OUT =         610.1418

            IN - OUT =         -35.7734              IN - OUT =      -9.3994E-02

 PERCENT DISCREPANCY =          -0.03     PERCENT DISCREPANCY =          -0.02






         TIME SUMMARY AT END OF TIME STEP   61 IN STRESS PERIOD    3
                    SECONDS     MINUTES      HOURS       DAYS        YEARS
                    -----------------------------------------------------------
   TIME STEP LENGTH  86400.      1440.0      24.000      1.0000     2.73785E-03
 STRESS PERIOD TIME 5.27040E+06  87840.      1464.0      61.000     0.16701    
         TOTAL TIME 1.39968E+07 2.33280E+05  3888.0      162.00     0.44353    
1

 SOLVING FOR HEAD 
     1 ITERATIONS FOR TIME STEP  62 IN STRESS PERIOD    3

 OUTPUT CONTROL FOR STRESS PERIOD    3   TIME STEP   62
    SAVE HEAD FOR ALL LAYERS
    SAVE DRAWDOWN FOR ALL LAYERS
    SAVE BUDGET
    PRINT HEAD FOR ALL LAYERS
    PRINT BUDGET
 UBDSV1 SAVING "         STORAGE" ON UNIT  53 AT TIME STEP 62, STRESS PERIOD   3
 UBDSV2 SAVING "   CONSTANT HEAD" ON UNIT  53 AT TIME STEP 62, STRESS PERIOD   3
 UBDSV1 SAVING "FLOW RIGHT FACE " ON UNIT  53 AT TIME STEP 62, STRESS PERIOD   3
 UBDSV1 SAVING "FLOW FRONT FACE " ON UNIT  53 AT TIME STEP 62, STRESS PERIOD   3
1
              HEAD IN LAYER   1 AT END OF TIME STEP  62 IN STRESS PERIOD    3
  ---------------------------------------------------------------------------

            1           2           3           4           5           6           7           8           9          10
 ........................................................................................................................
   1    9.990       8.786       7.592       6.418       5.278       4.178       3.112       2.068       1.036      1.0261E-02
   2    9.990       8.776       7.571       6.385       5.237       4.144       3.090       2.056       1.031      1.0208E-02
   3    9.990       8.759       7.531       6.314       5.140       4.073       3.047       2.033       1.022      1.0116E-02
   4    9.990       8.739       7.478       6.201       4.937       3.959       2.993       2.009       1.012      1.0024E-02
   5    9.989       8.728       7.441       6.075       4.448       3.833       2.956       1.997       1.009      9.9890E-03
   6    9.990       8.742       7.484       6.210       4.947       3.969       3.001       2.015       1.016      1.0055E-02
   7    9.990       8.766       7.544       6.333       5.161       4.093       3.065       2.046       1.028      1.0181E-02
   8    9.990       8.789       7.594       6.416       5.272       4.178       3.118       2.076       1.042      1.0312E-02
   9    9.990       8.804       7.627       6.466       5.331       4.229       3.154       2.098       1.052      1.0412E-02
  10    9.990       8.812       7.643       6.489       5.358       4.253       3.172       2.109       1.057      1.0465E-02

 HEAD WILL BE SAVED ON UNIT   51 AT END OF TIME STEP   62, STRESS PERIOD    3

 DRAWDOWN WILL BE SAVED ON UNIT   52 AT END OF TIME STEP   62, STRESS PERIOD    3
1
  VOLUMETRIC BUDGET FOR ENTIRE MODEL AT END OF TIME STEP   62, STRESS PERIOD   3
  ------------------------------------------------------------------------------

     CUMULATIVE VOLUMES      L**3       RATES FOR THIS TIME STEP      L**3/T
     ------------------                 ------------------------

           IN:                                      IN:
           ---                                      ---
             STORAGE =       25997.4707               STORAGE =           0.2124
       CONSTANT HEAD =           0.0000         CONSTANT HEAD =           0.0000
               WELLS =           0.0000                 WELLS =           0.0000
     HEAD DEP BOUNDS =       85296.3125       HEAD DEP BOUNDS =         609.8297

            TOTAL IN =      111293.7812              TOTAL IN =         610.0421

          OUT:                                     OUT:
          ----                                     ----
             STORAGE =           0.0000               STORAGE =           0.0000
       CONSTANT HEAD =           0.0000         CONSTANT HEAD =           0.0000
               WELLS =        6200.0000                 WELLS =         100.0000
     HEAD DEP BOUNDS =      105129.6406       HEAD DEP BOUNDS =         510.1288

           TOTAL OUT =      111329.6406             TOTAL OUT =         610.1288

            IN - OUT =         -35.8594              IN - OUT =      -8.6670E-02

 PERCENT DISCREPANCY =          -0.03     PERCENT DISCREPANCY =          -0.01






         TIME SUMMARY AT END OF TIME STEP   62 IN STRESS PERIOD    3
                    SECONDS     MINUTES      HOURS       DAYS        YEARS
                    -----------------------------------------------------------
   TIME STEP LENGTH  86400.      1440.0      24.000      1.0000     2.73785E-03
 STRESS PERIOD TIME 5.35680E+06  89280.      1488.0      62.000     0.16975    
         TOTAL TIME 1.40832E+07 2.34720E+05  3912.0      163.00     0.44627    
1

 SOLVING FOR HEAD 
     1 ITERATIONS FOR TIME STEP  63 IN STRESS PERIOD    3

 OUTPUT CONTROL FOR STRESS PERIOD    3   TIME STEP   63
    SAVE HEAD FOR ALL LAYERS
    SAVE DRAWDOWN FOR ALL LAYERS
    SAVE BUDGET
    PRINT HEAD FOR ALL LAYERS
    PRINT BUDGET
 UBDSV1 SAVING "         STORAGE" ON UNIT  53 AT TIME STEP 63, STRESS PERIOD   3
 UBDSV2 SAVING "   CONSTANT HEAD" ON UNIT  53 AT TIME STEP 63, STRESS PERIOD   3
 UBDSV1 SAVING "FLOW RIGHT FACE " ON UNIT  53 AT TIME STEP 63, STRESS PERIOD   3
 UBDSV1 SAVING "FLOW FRONT FACE " ON UNIT  53 AT TIME STEP 63, STRESS PERIOD   3
1
              HEAD IN LAYER   1 AT END OF TIME STEP  63 IN STRESS PERIOD    3
  ---------------------------------------------------------------------------

            1           2           3           4           5           6           7           8           9          10
 ........................................................................................................................
   1    9.990       8.786       7.592       6.418       5.278       4.178       3.112       2.068       1.036      1.0261E-02
   2    9.990       8.776       7.571       6.385       5.237       4.144       3.090       2.056       1.031      1.0207E-02
   3    9.990       8.759       7.531       6.314       5.140       4.073       3.047       2.033       1.022      1.0116E-02
   4    9.990       8.739       7.478       6.201       4.937       3.959       2.993       2.009       1.012      1.0024E-02
   5    9.989       8.728       7.441       6.075       4.448       3.833       2.956       1.997       1.009      9.9888E-03
   6    9.990       8.742       7.484       6.210       4.947       3.968       3.001       2.015       1.016      1.0055E-02
   7    9.990       8.766       7.544       6.333       5.161       4.093       3.065       2.046       1.028      1.0181E-02
   8    9.990       8.789       7.594       6.416       5.271       4.178       3.118       2.076       1.042      1.0312E-02
   9    9.990       8.804       7.627       6.466       5.331       4.229       3.154       2.098       1.052      1.0412E-02
  10    9.990       8.812       7.643       6.489       5.357       4.253       3.172       2.109       1.057      1.0465E-02

 HEAD WILL BE SAVED ON UNIT   51 AT END OF TIME STEP   63, STRESS PERIOD    3

 DRAWDOWN WILL BE SAVED ON UNIT   52 AT END OF TIME STEP   63, STRESS PERIOD    3
1
  VOLUMETRIC BUDGET FOR ENTIRE MODEL AT END OF TIME STEP   63, STRESS PERIOD   3
  ------------------------------------------------------------------------------

     CUMULATIVE VOLUMES      L**3       RATES FOR THIS TIME STEP      L**3/T
     ------------------                 ------------------------

           IN:                                      IN:
           ---                                      ---
             STORAGE =       25997.6660               STORAGE =           0.1951
       CONSTANT HEAD =           0.0000         CONSTANT HEAD =           0.0000
               WELLS =           0.0000                 WELLS =           0.0000
     HEAD DEP BOUNDS =       85906.1562       HEAD DEP BOUNDS =         609.8413

            TOTAL IN =      111903.8203              TOTAL IN =         610.0364

          OUT:                                     OUT:
          ----                                     ----
             STORAGE =           0.0000               STORAGE =           0.0000
       CONSTANT HEAD =           0.0000         CONSTANT HEAD =           0.0000
               WELLS =        6300.0000                 WELLS =         100.0000
     HEAD DEP BOUNDS =      105639.7578       HEAD DEP BOUNDS =         510.1169

           TOTAL OUT =      111939.7578             TOTAL OUT =         610.1169

            IN - OUT =         -35.9375              IN - OUT =      -8.0444E-02

 PERCENT DISCREPANCY =          -0.03     PERCENT DISCREPANCY =          -0.01






         TIME SUMMARY AT END OF TIME STEP   63 IN STRESS PERIOD    3
                    SECONDS     MINUTES      HOURS       DAYS        YEARS
                    -----------------------------------------------------------
   TIME STEP LENGTH  86400.      1440.0      24.000      1.0000     2.73785E-03
 STRESS PERIOD TIME 5.44320E+06  90720.      1512.0      63.000     0.17248    
         TOTAL TIME 1.41696E+07 2.36160E+05  3936.0      164.00     0.44901    
1

 SOLVING FOR HEAD 
     1 ITERATIONS FOR TIME STEP  64 IN STRESS PERIOD    3

 OUTPUT CONTROL FOR STRESS PERIOD    3   TIME STEP   64
    SAVE HEAD FOR ALL LAYERS
    SAVE DRAWDOWN FOR ALL LAYERS
    SAVE BUDGET
    PRINT HEAD FOR ALL LAYERS
    PRINT BUDGET
 UBDSV1 SAVING "         STORAGE" ON UNIT  53 AT TIME STEP 64, STRESS PERIOD   3
 UBDSV2 SAVING "   CONSTANT HEAD" ON UNIT  53 AT TIME STEP 64, STRESS PERIOD   3
 UBDSV1 SAVING "FLOW RIGHT FACE " ON UNIT  53 AT TIME STEP 64, STRESS PERIOD   3
 UBDSV1 SAVING "FLOW FRONT FACE " ON UNIT  53 AT TIME STEP 64, STRESS PERIOD   3
1
              HEAD IN LAYER   1 AT END OF TIME STEP  64 IN STRESS PERIOD    3
  ---------------------------------------------------------------------------

            1           2           3           4           5           6           7           8           9          10
 ........................................................................................................................
   1    9.990       8.786       7.592       6.418       5.278       4.178       3.112       2.068       1.036      1.0261E-02
   2    9.990       8.776       7.571       6.385       5.237       4.144       3.090       2.056       1.031      1.0207E-02
   3    9.990       8.759       7.530       6.314       5.140       4.073       3.047       2.033       1.022      1.0116E-02
   4    9.990       8.739       7.478       6.201       4.937       3.959       2.993       2.009       1.012      1.0024E-02
   5    9.989       8.728       7.441       6.075       4.448       3.833       2.956       1.997       1.009      9.9886E-03
   6    9.990       8.742       7.484       6.210       4.947       3.968       3.001       2.015       1.015      1.0055E-02
   7    9.990       8.766       7.544       6.333       5.161       4.093       3.064       2.046       1.028      1.0181E-02
   8    9.990       8.789       7.594       6.416       5.271       4.178       3.118       2.076       1.042      1.0312E-02
   9    9.990       8.804       7.627       6.465       5.331       4.229       3.154       2.098       1.052      1.0412E-02
  10    9.990       8.812       7.642       6.488       5.357       4.253       3.172       2.109       1.057      1.0465E-02

 HEAD WILL BE SAVED ON UNIT   51 AT END OF TIME STEP   64, STRESS PERIOD    3

 DRAWDOWN WILL BE SAVED ON UNIT   52 AT END OF TIME STEP   64, STRESS PERIOD    3
1
  VOLUMETRIC BUDGET FOR ENTIRE MODEL AT END OF TIME STEP   64, STRESS PERIOD   3
  ------------------------------------------------------------------------------

     CUMULATIVE VOLUMES      L**3       RATES FOR THIS TIME STEP      L**3/T
     ------------------                 ------------------------

           IN:                                      IN:
           ---                                      ---
             STORAGE =       25997.8457               STORAGE =           0.1799
       CONSTANT HEAD =           0.0000         CONSTANT HEAD =           0.0000
               WELLS =           0.0000                 WELLS =           0.0000
     HEAD DEP BOUNDS =       86516.0078       HEAD DEP BOUNDS =         609.8520

            TOTAL IN =      112513.8516              TOTAL IN =         610.0319

          OUT:                                     OUT:
          ----                                     ----
             STORAGE =           0.0000               STORAGE =           0.0000
       CONSTANT HEAD =           0.0000         CONSTANT HEAD =           0.0000
               WELLS =        6400.0000                 WELLS =         100.0000
     HEAD DEP BOUNDS =      106149.8672       HEAD DEP BOUNDS =         510.1059

           TOTAL OUT =      112549.8672             TOTAL OUT =         610.1059

            IN - OUT =         -36.0156              IN - OUT =      -7.4036E-02

 PERCENT DISCREPANCY =          -0.03     PERCENT DISCREPANCY =          -0.01






         TIME SUMMARY AT END OF TIME STEP   64 IN STRESS PERIOD    3
                    SECONDS     MINUTES      HOURS       DAYS        YEARS
                    -----------------------------------------------------------
   TIME STEP LENGTH  86400.      1440.0      24.000      1.0000     2.73785E-03
 STRESS PERIOD TIME 5.52960E+06  92160.      1536.0      64.000     0.17522    
         TOTAL TIME 1.42560E+07 2.37600E+05  3960.0      165.00     0.45175    
1

 SOLVING FOR HEAD 
     1 ITERATIONS FOR TIME STEP  65 IN STRESS PERIOD    3

 OUTPUT CONTROL FOR STRESS PERIOD    3   TIME STEP   65
    SAVE HEAD FOR ALL LAYERS
    SAVE DRAWDOWN FOR ALL LAYERS
    SAVE BUDGET
    PRINT HEAD FOR ALL LAYERS
    PRINT BUDGET
 UBDSV1 SAVING "         STORAGE" ON UNIT  53 AT TIME STEP 65, STRESS PERIOD   3
 UBDSV2 SAVING "   CONSTANT HEAD" ON UNIT  53 AT TIME STEP 65, STRESS PERIOD   3
 UBDSV1 SAVING "FLOW RIGHT FACE " ON UNIT  53 AT TIME STEP 65, STRESS PERIOD   3
 UBDSV1 SAVING "FLOW FRONT FACE " ON UNIT  53 AT TIME STEP 65, STRESS PERIOD   3
1
              HEAD IN LAYER   1 AT END OF TIME STEP  65 IN STRESS PERIOD    3
  ---------------------------------------------------------------------------

            1           2           3           4           5           6           7           8           9          10
 ........................................................................................................................
   1    9.990       8.786       7.592       6.418       5.278       4.178       3.112       2.068       1.036      1.0261E-02
   2    9.990       8.776       7.571       6.385       5.237       4.144       3.090       2.055       1.031      1.0207E-02
   3    9.990       8.759       7.530       6.314       5.140       4.073       3.047       2.033       1.022      1.0116E-02
   4    9.990       8.738       7.478       6.201       4.937       3.959       2.993       2.009       1.012      1.0024E-02
   5    9.989       8.728       7.441       6.075       4.448       3.833       2.956       1.997       1.009      9.9884E-03
   6    9.990       8.742       7.484       6.210       4.947       3.968       3.001       2.015       1.015      1.0055E-02
   7    9.990       8.766       7.544       6.333       5.161       4.093       3.064       2.046       1.028      1.0181E-02
   8    9.990       8.789       7.594       6.416       5.271       4.178       3.118       2.076       1.041      1.0312E-02
   9    9.990       8.804       7.627       6.465       5.331       4.229       3.154       2.098       1.052      1.0412E-02
  10    9.990       8.812       7.642       6.488       5.357       4.253       3.172       2.109       1.057      1.0465E-02

 HEAD WILL BE SAVED ON UNIT   51 AT END OF TIME STEP   65, STRESS PERIOD    3

 DRAWDOWN WILL BE SAVED ON UNIT   52 AT END OF TIME STEP   65, STRESS PERIOD    3
1
  VOLUMETRIC BUDGET FOR ENTIRE MODEL AT END OF TIME STEP   65, STRESS PERIOD   3
  ------------------------------------------------------------------------------

     CUMULATIVE VOLUMES      L**3       RATES FOR THIS TIME STEP      L**3/T
     ------------------                 ------------------------

           IN:                                      IN:
           ---                                      ---
             STORAGE =       25998.0117               STORAGE =           0.1651
       CONSTANT HEAD =           0.0000         CONSTANT HEAD =           0.0000
               WELLS =           0.0000                 WELLS =           0.0000
     HEAD DEP BOUNDS =       87125.8672       HEAD DEP BOUNDS =         609.8619

            TOTAL IN =      113123.8750              TOTAL IN =         610.0270

          OUT:                                     OUT:
          ----                                     ----
             STORAGE =           0.0000               STORAGE =           0.0000
       CONSTANT HEAD =           0.0000         CONSTANT HEAD =           0.0000
               WELLS =        6500.0000                 WELLS =         100.0000
     HEAD DEP BOUNDS =      106659.9609       HEAD DEP BOUNDS =         510.0958

           TOTAL OUT =      113159.9609             TOTAL OUT =         610.0958

            IN - OUT =         -36.0859              IN - OUT =      -6.8848E-02

 PERCENT DISCREPANCY =          -0.03     PERCENT DISCREPANCY =          -0.01






         TIME SUMMARY AT END OF TIME STEP   65 IN STRESS PERIOD    3
                    SECONDS     MINUTES      HOURS       DAYS        YEARS
                    -----------------------------------------------------------
   TIME STEP LENGTH  86400.      1440.0      24.000      1.0000     2.73785E-03
 STRESS PERIOD TIME 5.61600E+06  93600.      1560.0      65.000     0.17796    
         TOTAL TIME 1.43424E+07 2.39040E+05  3984.0      166.00     0.45448    
1

 SOLVING FOR HEAD 
     1 ITERATIONS FOR TIME STEP  66 IN STRESS PERIOD    3

 OUTPUT CONTROL FOR STRESS PERIOD    3   TIME STEP   66
    SAVE HEAD FOR ALL LAYERS
    SAVE DRAWDOWN FOR ALL LAYERS
    SAVE BUDGET
    PRINT HEAD FOR ALL LAYERS
    PRINT BUDGET
 UBDSV1 SAVING "         STORAGE" ON UNIT  53 AT TIME STEP 66, STRESS PERIOD   3
 UBDSV2 SAVING "   CONSTANT HEAD" ON UNIT  53 AT TIME STEP 66, STRESS PERIOD   3
 UBDSV1 SAVING "FLOW RIGHT FACE " ON UNIT  53 AT TIME STEP 66, STRESS PERIOD   3
 UBDSV1 SAVING "FLOW FRONT FACE " ON UNIT  53 AT TIME STEP 66, STRESS PERIOD   3
1
              HEAD IN LAYER   1 AT END OF TIME STEP  66 IN STRESS PERIOD    3
  ---------------------------------------------------------------------------

            1           2           3           4           5           6           7           8           9          10
 ........................................................................................................................
   1    9.990       8.786       7.592       6.418       5.278       4.178       3.112       2.068       1.036      1.0261E-02
   2    9.990       8.776       7.571       6.385       5.237       4.144       3.090       2.055       1.031      1.0207E-02
   3    9.990       8.759       7.530       6.314       5.140       4.073       3.047       2.033       1.022      1.0115E-02
   4    9.990       8.738       7.478       6.201       4.937       3.959       2.993       2.009       1.012      1.0023E-02
   5    9.989       8.728       7.441       6.075       4.448       3.833       2.956       1.997       1.009      9.9882E-03
   6    9.990       8.742       7.484       6.210       4.947       3.968       3.001       2.015       1.015      1.0055E-02
   7    9.990       8.766       7.544       6.333       5.161       4.093       3.064       2.046       1.028      1.0181E-02
   8    9.990       8.789       7.594       6.416       5.271       4.178       3.118       2.076       1.041      1.0311E-02
   9    9.990       8.804       7.627       6.465       5.331       4.229       3.154       2.098       1.052      1.0412E-02
  10    9.990       8.812       7.642       6.488       5.357       4.253       3.172       2.109       1.057      1.0465E-02

 HEAD WILL BE SAVED ON UNIT   51 AT END OF TIME STEP   66, STRESS PERIOD    3

 DRAWDOWN WILL BE SAVED ON UNIT   52 AT END OF TIME STEP   66, STRESS PERIOD    3
1
  VOLUMETRIC BUDGET FOR ENTIRE MODEL AT END OF TIME STEP   66, STRESS PERIOD   3
  ------------------------------------------------------------------------------

     CUMULATIVE VOLUMES      L**3       RATES FOR THIS TIME STEP      L**3/T
     ------------------                 ------------------------

           IN:                                      IN:
           ---                                      ---
             STORAGE =       25998.1641               STORAGE =           0.1520
       CONSTANT HEAD =           0.0000         CONSTANT HEAD =           0.0000
               WELLS =           0.0000                 WELLS =           0.0000
     HEAD DEP BOUNDS =       87735.7344       HEAD DEP BOUNDS =         609.8708

            TOTAL IN =      113733.8984              TOTAL IN =         610.0229

          OUT:                                     OUT:
          ----                                     ----
             STORAGE =           0.0000               STORAGE =           0.0000
       CONSTANT HEAD =           0.0000         CONSTANT HEAD =           0.0000
               WELLS =        6600.0000                 WELLS =         100.0000
     HEAD DEP BOUNDS =      107170.0469       HEAD DEP BOUNDS =         510.0865

           TOTAL OUT =      113770.0469             TOTAL OUT =         610.0865

            IN - OUT =         -36.1484              IN - OUT =      -6.3599E-02

 PERCENT DISCREPANCY =          -0.03     PERCENT DISCREPANCY =          -0.01






         TIME SUMMARY AT END OF TIME STEP   66 IN STRESS PERIOD    3
                    SECONDS     MINUTES      HOURS       DAYS        YEARS
                    -----------------------------------------------------------
   TIME STEP LENGTH  86400.      1440.0      24.000      1.0000     2.73785E-03
 STRESS PERIOD TIME 5.70240E+06  95040.      1584.0      66.000     0.18070    
         TOTAL TIME 1.44288E+07 2.40480E+05  4008.0      167.00     0.45722    
1

 SOLVING FOR HEAD 
     1 ITERATIONS FOR TIME STEP  67 IN STRESS PERIOD    3

 OUTPUT CONTROL FOR STRESS PERIOD    3   TIME STEP   67
    SAVE HEAD FOR ALL LAYERS
    SAVE DRAWDOWN FOR ALL LAYERS
    SAVE BUDGET
    PRINT HEAD FOR ALL LAYERS
    PRINT BUDGET
 UBDSV1 SAVING "         STORAGE" ON UNIT  53 AT TIME STEP 67, STRESS PERIOD   3
 UBDSV2 SAVING "   CONSTANT HEAD" ON UNIT  53 AT TIME STEP 67, STRESS PERIOD   3
 UBDSV1 SAVING "FLOW RIGHT FACE " ON UNIT  53 AT TIME STEP 67, STRESS PERIOD   3
 UBDSV1 SAVING "FLOW FRONT FACE " ON UNIT  53 AT TIME STEP 67, STRESS PERIOD   3
1
              HEAD IN LAYER   1 AT END OF TIME STEP  67 IN STRESS PERIOD    3
  ---------------------------------------------------------------------------

            1           2           3           4           5           6           7           8           9          10
 ........................................................................................................................
   1    9.990       8.786       7.592       6.418       5.278       4.178       3.112       2.068       1.036      1.0260E-02
   2    9.990       8.776       7.571       6.385       5.237       4.144       3.090       2.055       1.031      1.0207E-02
   3    9.990       8.759       7.530       6.314       5.140       4.072       3.047       2.033       1.022      1.0115E-02
   4    9.990       8.738       7.478       6.201       4.937       3.959       2.993       2.009       1.012      1.0023E-02
   5    9.989       8.728       7.441       6.075       4.448       3.833       2.956       1.997       1.009      9.9880E-03
   6    9.990       8.742       7.484       6.210       4.947       3.968       3.001       2.015       1.015      1.0054E-02
   7    9.990       8.766       7.544       6.333       5.161       4.093       3.064       2.046       1.028      1.0180E-02
   8    9.990       8.789       7.594       6.416       5.271       4.178       3.118       2.076       1.041      1.0311E-02
   9    9.990       8.804       7.626       6.465       5.331       4.229       3.154       2.098       1.052      1.0411E-02
  10    9.990       8.812       7.642       6.488       5.357       4.253       3.172       2.109       1.057      1.0464E-02

 HEAD WILL BE SAVED ON UNIT   51 AT END OF TIME STEP   67, STRESS PERIOD    3

 DRAWDOWN WILL BE SAVED ON UNIT   52 AT END OF TIME STEP   67, STRESS PERIOD    3
1
  VOLUMETRIC BUDGET FOR ENTIRE MODEL AT END OF TIME STEP   67, STRESS PERIOD   3
  ------------------------------------------------------------------------------

     CUMULATIVE VOLUMES      L**3       RATES FOR THIS TIME STEP      L**3/T
     ------------------                 ------------------------

           IN:                                      IN:
           ---                                      ---
             STORAGE =       25998.3047               STORAGE =           0.1401
       CONSTANT HEAD =           0.0000         CONSTANT HEAD =           0.0000
               WELLS =           0.0000                 WELLS =           0.0000
     HEAD DEP BOUNDS =       88345.6172       HEAD DEP BOUNDS =         609.8792

            TOTAL IN =      114343.9219              TOTAL IN =         610.0192

          OUT:                                     OUT:
          ----                                     ----
             STORAGE =           0.0000               STORAGE =           0.0000
       CONSTANT HEAD =           0.0000         CONSTANT HEAD =           0.0000
               WELLS =        6700.0000                 WELLS =         100.0000
     HEAD DEP BOUNDS =      107680.1250       HEAD DEP BOUNDS =         510.0779

           TOTAL OUT =      114380.1250             TOTAL OUT =         610.0779

            IN - OUT =         -36.2031              IN - OUT =      -5.8716E-02

 PERCENT DISCREPANCY =          -0.03     PERCENT DISCREPANCY =          -0.01






         TIME SUMMARY AT END OF TIME STEP   67 IN STRESS PERIOD    3
                    SECONDS     MINUTES      HOURS       DAYS        YEARS
                    -----------------------------------------------------------
   TIME STEP LENGTH  86400.      1440.0      24.000      1.0000     2.73785E-03
 STRESS PERIOD TIME 5.78880E+06  96480.      1608.0      67.000     0.18344    
         TOTAL TIME 1.45152E+07 2.41920E+05  4032.0      168.00     0.45996    
1

 SOLVING FOR HEAD 
     1 ITERATIONS FOR TIME STEP  68 IN STRESS PERIOD    3

 OUTPUT CONTROL FOR STRESS PERIOD    3   TIME STEP   68
    SAVE HEAD FOR ALL LAYERS
    SAVE DRAWDOWN FOR ALL LAYERS
    SAVE BUDGET
    PRINT HEAD FOR ALL LAYERS
    PRINT BUDGET
 UBDSV1 SAVING "         STORAGE" ON UNIT  53 AT TIME STEP 68, STRESS PERIOD   3
 UBDSV2 SAVING "   CONSTANT HEAD" ON UNIT  53 AT TIME STEP 68, STRESS PERIOD   3
 UBDSV1 SAVING "FLOW RIGHT FACE " ON UNIT  53 AT TIME STEP 68, STRESS PERIOD   3
 UBDSV1 SAVING "FLOW FRONT FACE " ON UNIT  53 AT TIME STEP 68, STRESS PERIOD   3
1
              HEAD IN LAYER   1 AT END OF TIME STEP  68 IN STRESS PERIOD    3
  ---------------------------------------------------------------------------

            1           2           3           4           5           6           7           8           9          10
 ........................................................................................................................
   1    9.990       8.786       7.592       6.418       5.278       4.178       3.112       2.068       1.036      1.0260E-02
   2    9.990       8.776       7.571       6.385       5.237       4.144       3.090       2.055       1.031      1.0207E-02
   3    9.990       8.759       7.530       6.314       5.140       4.072       3.047       2.033       1.022      1.0115E-02
   4    9.990       8.738       7.478       6.201       4.937       3.959       2.993       2.009       1.012      1.0023E-02
   5    9.989       8.728       7.441       6.075       4.448       3.833       2.956       1.997       1.009      9.9879E-03
   6    9.990       8.742       7.484       6.210       4.947       3.968       3.001       2.015       1.015      1.0054E-02
   7    9.990       8.766       7.544       6.333       5.161       4.093       3.064       2.046       1.028      1.0180E-02
   8    9.990       8.789       7.594       6.416       5.271       4.178       3.118       2.076       1.041      1.0311E-02
   9    9.990       8.804       7.626       6.465       5.331       4.229       3.154       2.098       1.052      1.0411E-02
  10    9.990       8.812       7.642       6.488       5.357       4.253       3.172       2.109       1.057      1.0464E-02

 HEAD WILL BE SAVED ON UNIT   51 AT END OF TIME STEP   68, STRESS PERIOD    3

 DRAWDOWN WILL BE SAVED ON UNIT   52 AT END OF TIME STEP   68, STRESS PERIOD    3
1
  VOLUMETRIC BUDGET FOR ENTIRE MODEL AT END OF TIME STEP   68, STRESS PERIOD   3
  ------------------------------------------------------------------------------

     CUMULATIVE VOLUMES      L**3       RATES FOR THIS TIME STEP      L**3/T
     ------------------                 ------------------------

           IN:                                      IN:
           ---                                      ---
             STORAGE =       25998.4336               STORAGE =           0.1286
       CONSTANT HEAD =           0.0000         CONSTANT HEAD =           0.0000
               WELLS =           0.0000                 WELLS =           0.0000
     HEAD DEP BOUNDS =       88955.5078       HEAD DEP BOUNDS =         609.8868

            TOTAL IN =      114953.9375              TOTAL IN =         610.0154

          OUT:                                     OUT:
          ----                                     ----
             STORAGE =           0.0000               STORAGE =           0.0000
       CONSTANT HEAD =           0.0000         CONSTANT HEAD =           0.0000
               WELLS =        6800.0000                 WELLS =         100.0000
     HEAD DEP BOUNDS =      108190.1953       HEAD DEP BOUNDS =         510.0701

           TOTAL OUT =      114990.1953             TOTAL OUT =         610.0701

            IN - OUT =         -36.2578              IN - OUT =      -5.4626E-02

 PERCENT DISCREPANCY =          -0.03     PERCENT DISCREPANCY =          -0.01






         TIME SUMMARY AT END OF TIME STEP   68 IN STRESS PERIOD    3
                    SECONDS     MINUTES      HOURS       DAYS        YEARS
                    -----------------------------------------------------------
   TIME STEP LENGTH  86400.      1440.0      24.000      1.0000     2.73785E-03
 STRESS PERIOD TIME 5.87520E+06  97920.      1632.0      68.000     0.18617    
         TOTAL TIME 1.46016E+07 2.43360E+05  4056.0      169.00     0.46270    
1

 SOLVING FOR HEAD 
     1 ITERATIONS FOR TIME STEP  69 IN STRESS PERIOD    3

 OUTPUT CONTROL FOR STRESS PERIOD    3   TIME STEP   69
    SAVE HEAD FOR ALL LAYERS
    SAVE DRAWDOWN FOR ALL LAYERS
    SAVE BUDGET
    PRINT HEAD FOR ALL LAYERS
    PRINT BUDGET
 UBDSV1 SAVING "         STORAGE" ON UNIT  53 AT TIME STEP 69, STRESS PERIOD   3
 UBDSV2 SAVING "   CONSTANT HEAD" ON UNIT  53 AT TIME STEP 69, STRESS PERIOD   3
 UBDSV1 SAVING "FLOW RIGHT FACE " ON UNIT  53 AT TIME STEP 69, STRESS PERIOD   3
 UBDSV1 SAVING "FLOW FRONT FACE " ON UNIT  53 AT TIME STEP 69, STRESS PERIOD   3
1
              HEAD IN LAYER   1 AT END OF TIME STEP  69 IN STRESS PERIOD    3
  ---------------------------------------------------------------------------

            1           2           3           4           5           6           7           8           9          10
 ........................................................................................................................
   1    9.990       8.786       7.592       6.418       5.277       4.178       3.112       2.068       1.036      1.0260E-02
   2    9.990       8.776       7.571       6.385       5.237       4.144       3.090       2.055       1.031      1.0206E-02
   3    9.990       8.759       7.530       6.314       5.140       4.072       3.047       2.033       1.022      1.0115E-02
   4    9.990       8.738       7.478       6.201       4.937       3.959       2.992       2.009       1.012      1.0023E-02
   5    9.989       8.728       7.441       6.075       4.448       3.833       2.956       1.997       1.009      9.9877E-03
   6    9.990       8.742       7.484       6.210       4.947       3.968       3.001       2.015       1.015      1.0054E-02
   7    9.990       8.766       7.544       6.333       5.161       4.093       3.064       2.046       1.028      1.0180E-02
   8    9.990       8.789       7.594       6.416       5.271       4.178       3.118       2.076       1.041      1.0311E-02
   9    9.990       8.804       7.626       6.465       5.331       4.229       3.154       2.097       1.052      1.0411E-02
  10    9.990       8.812       7.642       6.488       5.357       4.253       3.172       2.109       1.057      1.0464E-02

 HEAD WILL BE SAVED ON UNIT   51 AT END OF TIME STEP   69, STRESS PERIOD    3

 DRAWDOWN WILL BE SAVED ON UNIT   52 AT END OF TIME STEP   69, STRESS PERIOD    3
1
  VOLUMETRIC BUDGET FOR ENTIRE MODEL AT END OF TIME STEP   69, STRESS PERIOD   3
  ------------------------------------------------------------------------------

     CUMULATIVE VOLUMES      L**3       RATES FOR THIS TIME STEP      L**3/T
     ------------------                 ------------------------

           IN:                                      IN:
           ---                                      ---
             STORAGE =       25998.5527               STORAGE =           0.1184
       CONSTANT HEAD =           0.0000         CONSTANT HEAD =           0.0000
               WELLS =           0.0000                 WELLS =           0.0000
     HEAD DEP BOUNDS =       89565.3984       HEAD DEP BOUNDS =         609.8939

            TOTAL IN =      115563.9531              TOTAL IN =         610.0122

          OUT:                                     OUT:
          ----                                     ----
             STORAGE =           0.0000               STORAGE =           0.0000
       CONSTANT HEAD =           0.0000         CONSTANT HEAD =           0.0000
               WELLS =        6900.0000                 WELLS =         100.0000
     HEAD DEP BOUNDS =      108700.2578       HEAD DEP BOUNDS =         510.0628

           TOTAL OUT =      115600.2578             TOTAL OUT =         610.0629

            IN - OUT =         -36.3047              IN - OUT =      -5.0659E-02

 PERCENT DISCREPANCY =          -0.03     PERCENT DISCREPANCY =          -0.01






         TIME SUMMARY AT END OF TIME STEP   69 IN STRESS PERIOD    3
                    SECONDS     MINUTES      HOURS       DAYS        YEARS
                    -----------------------------------------------------------
   TIME STEP LENGTH  86400.      1440.0      24.000      1.0000     2.73785E-03
 STRESS PERIOD TIME 5.96160E+06  99360.      1656.0      69.000     0.18891    
         TOTAL TIME 1.46880E+07 2.44800E+05  4080.0      170.00     0.46543    
1

 SOLVING FOR HEAD 
     1 ITERATIONS FOR TIME STEP  70 IN STRESS PERIOD    3

 OUTPUT CONTROL FOR STRESS PERIOD    3   TIME STEP   70
    SAVE HEAD FOR ALL LAYERS
    SAVE DRAWDOWN FOR ALL LAYERS
    SAVE BUDGET
    PRINT HEAD FOR ALL LAYERS
    PRINT BUDGET
 UBDSV1 SAVING "         STORAGE" ON UNIT  53 AT TIME STEP 70, STRESS PERIOD   3
 UBDSV2 SAVING "   CONSTANT HEAD" ON UNIT  53 AT TIME STEP 70, STRESS PERIOD   3
 UBDSV1 SAVING "FLOW RIGHT FACE " ON UNIT  53 AT TIME STEP 70, STRESS PERIOD   3
 UBDSV1 SAVING "FLOW FRONT FACE " ON UNIT  53 AT TIME STEP 70, STRESS PERIOD   3
1
              HEAD IN LAYER   1 AT END OF TIME STEP  70 IN STRESS PERIOD    3
  ---------------------------------------------------------------------------

            1           2           3           4           5           6           7           8           9          10
 ........................................................................................................................
   1    9.990       8.786       7.592       6.418       5.277       4.178       3.112       2.068       1.036      1.0260E-02
   2    9.990       8.776       7.571       6.385       5.237       4.144       3.089       2.055       1.031      1.0206E-02
   3    9.990       8.759       7.530       6.314       5.140       4.072       3.047       2.033       1.022      1.0115E-02
   4    9.990       8.738       7.478       6.201       4.937       3.959       2.992       2.009       1.012      1.0023E-02
   5    9.989       8.728       7.441       6.075       4.448       3.832       2.956       1.997       1.009      9.9876E-03
   6    9.990       8.742       7.484       6.209       4.946       3.968       3.001       2.015       1.015      1.0054E-02
   7    9.990       8.766       7.544       6.333       5.161       4.093       3.064       2.046       1.028      1.0180E-02
   8    9.990       8.789       7.594       6.416       5.271       4.178       3.118       2.076       1.041      1.0311E-02
   9    9.990       8.804       7.626       6.465       5.331       4.229       3.154       2.097       1.052      1.0411E-02
  10    9.990       8.812       7.642       6.488       5.357       4.253       3.172       2.109       1.057      1.0464E-02

 HEAD WILL BE SAVED ON UNIT   51 AT END OF TIME STEP   70, STRESS PERIOD    3

 DRAWDOWN WILL BE SAVED ON UNIT   52 AT END OF TIME STEP   70, STRESS PERIOD    3
1
  VOLUMETRIC BUDGET FOR ENTIRE MODEL AT END OF TIME STEP   70, STRESS PERIOD   3
  ------------------------------------------------------------------------------

     CUMULATIVE VOLUMES      L**3       RATES FOR THIS TIME STEP      L**3/T
     ------------------                 ------------------------

           IN:                                      IN:
           ---                                      ---
             STORAGE =       25998.6621               STORAGE =           0.1088
       CONSTANT HEAD =           0.0000         CONSTANT HEAD =           0.0000
               WELLS =           0.0000                 WELLS =           0.0000
     HEAD DEP BOUNDS =       90175.2969       HEAD DEP BOUNDS =         609.9003

            TOTAL IN =      116173.9609              TOTAL IN =         610.0091

          OUT:                                     OUT:
          ----                                     ----
             STORAGE =           0.0000               STORAGE =           0.0000
       CONSTANT HEAD =           0.0000         CONSTANT HEAD =           0.0000
               WELLS =        7000.0000                 WELLS =         100.0000
     HEAD DEP BOUNDS =      109210.3125       HEAD DEP BOUNDS =         510.0562

           TOTAL OUT =      116210.3125             TOTAL OUT =         610.0562

            IN - OUT =         -36.3516              IN - OUT =      -4.7058E-02

 PERCENT DISCREPANCY =          -0.03     PERCENT DISCREPANCY =          -0.01






         TIME SUMMARY AT END OF TIME STEP   70 IN STRESS PERIOD    3
                    SECONDS     MINUTES      HOURS       DAYS        YEARS
                    -----------------------------------------------------------
   TIME STEP LENGTH  86400.      1440.0      24.000      1.0000     2.73785E-03
 STRESS PERIOD TIME 6.04800E+06 1.00800E+05  1680.0      70.000     0.19165    
         TOTAL TIME 1.47744E+07 2.46240E+05  4104.0      171.00     0.46817    
1

 SOLVING FOR HEAD 
     1 ITERATIONS FOR TIME STEP  71 IN STRESS PERIOD    3

 OUTPUT CONTROL FOR STRESS PERIOD    3   TIME STEP   71
    SAVE HEAD FOR ALL LAYERS
    SAVE DRAWDOWN FOR ALL LAYERS
    SAVE BUDGET
    PRINT HEAD FOR ALL LAYERS
    PRINT BUDGET
 UBDSV1 SAVING "         STORAGE" ON UNIT  53 AT TIME STEP 71, STRESS PERIOD   3
 UBDSV2 SAVING "   CONSTANT HEAD" ON UNIT  53 AT TIME STEP 71, STRESS PERIOD   3
 UBDSV1 SAVING "FLOW RIGHT FACE " ON UNIT  53 AT TIME STEP 71, STRESS PERIOD   3
 UBDSV1 SAVING "FLOW FRONT FACE " ON UNIT  53 AT TIME STEP 71, STRESS PERIOD   3
1
              HEAD IN LAYER   1 AT END OF TIME STEP  71 IN STRESS PERIOD    3
  ---------------------------------------------------------------------------

            1           2           3           4           5           6           7           8           9          10
 ........................................................................................................................
   1    9.990       8.786       7.592       6.418       5.277       4.178       3.112       2.068       1.036      1.0260E-02
   2    9.990       8.776       7.571       6.385       5.237       4.144       3.089       2.055       1.031      1.0206E-02
   3    9.990       8.759       7.530       6.314       5.140       4.072       3.047       2.033       1.022      1.0115E-02
   4    9.990       8.738       7.478       6.201       4.937       3.958       2.992       2.009       1.012      1.0023E-02
   5    9.989       8.728       7.441       6.075       4.448       3.832       2.956       1.997       1.009      9.9874E-03
   6    9.990       8.742       7.484       6.209       4.946       3.968       3.001       2.015       1.015      1.0054E-02
   7    9.990       8.766       7.544       6.332       5.161       4.093       3.064       2.046       1.028      1.0180E-02
   8    9.990       8.789       7.594       6.416       5.271       4.178       3.118       2.076       1.041      1.0311E-02
   9    9.990       8.804       7.626       6.465       5.331       4.229       3.154       2.097       1.052      1.0411E-02
  10    9.990       8.812       7.642       6.488       5.357       4.252       3.172       2.109       1.057      1.0464E-02

 HEAD WILL BE SAVED ON UNIT   51 AT END OF TIME STEP   71, STRESS PERIOD    3

 DRAWDOWN WILL BE SAVED ON UNIT   52 AT END OF TIME STEP   71, STRESS PERIOD    3
1
  VOLUMETRIC BUDGET FOR ENTIRE MODEL AT END OF TIME STEP   71, STRESS PERIOD   3
  ------------------------------------------------------------------------------

     CUMULATIVE VOLUMES      L**3       RATES FOR THIS TIME STEP      L**3/T
     ------------------                 ------------------------

           IN:                                      IN:
           ---                                      ---
             STORAGE =       25998.7617               STORAGE =           0.1002
       CONSTANT HEAD =           0.0000         CONSTANT HEAD =           0.0000
               WELLS =           0.0000                 WELLS =           0.0000
     HEAD DEP BOUNDS =       90785.2031       HEAD DEP BOUNDS =         609.9063

            TOTAL IN =      116783.9688              TOTAL IN =         610.0065

          OUT:                                     OUT:
          ----                                     ----
             STORAGE =           0.0000               STORAGE =           0.0000
       CONSTANT HEAD =           0.0000         CONSTANT HEAD =           0.0000
               WELLS =        7100.0000                 WELLS =         100.0000
     HEAD DEP BOUNDS =      109720.3594       HEAD DEP BOUNDS =         510.0500

           TOTAL OUT =      116820.3594             TOTAL OUT =         610.0500

            IN - OUT =         -36.3906              IN - OUT =      -4.3518E-02

 PERCENT DISCREPANCY =          -0.03     PERCENT DISCREPANCY =          -0.01






         TIME SUMMARY AT END OF TIME STEP   71 IN STRESS PERIOD    3
                    SECONDS     MINUTES      HOURS       DAYS        YEARS
                    -----------------------------------------------------------
   TIME STEP LENGTH  86400.      1440.0      24.000      1.0000     2.73785E-03
 STRESS PERIOD TIME 6.13440E+06 1.02240E+05  1704.0      71.000     0.19439    
         TOTAL TIME 1.48608E+07 2.47680E+05  4128.0      172.00     0.47091    
1

 SOLVING FOR HEAD 
     1 ITERATIONS FOR TIME STEP  72 IN STRESS PERIOD    3

 OUTPUT CONTROL FOR STRESS PERIOD    3   TIME STEP   72
    SAVE HEAD FOR ALL LAYERS
    SAVE DRAWDOWN FOR ALL LAYERS
    SAVE BUDGET
    PRINT HEAD FOR ALL LAYERS
    PRINT BUDGET
 UBDSV1 SAVING "         STORAGE" ON UNIT  53 AT TIME STEP 72, STRESS PERIOD   3
 UBDSV2 SAVING "   CONSTANT HEAD" ON UNIT  53 AT TIME STEP 72, STRESS PERIOD   3
 UBDSV1 SAVING "FLOW RIGHT FACE " ON UNIT  53 AT TIME STEP 72, STRESS PERIOD   3
 UBDSV1 SAVING "FLOW FRONT FACE " ON UNIT  53 AT TIME STEP 72, STRESS PERIOD   3
1
              HEAD IN LAYER   1 AT END OF TIME STEP  72 IN STRESS PERIOD    3
  ---------------------------------------------------------------------------

            1           2           3           4           5           6           7           8           9          10
 ........................................................................................................................
   1    9.990       8.786       7.592       6.418       5.277       4.178       3.112       2.068       1.036      1.0260E-02
   2    9.990       8.776       7.571       6.385       5.237       4.144       3.089       2.055       1.031      1.0206E-02
   3    9.990       8.759       7.530       6.314       5.140       4.072       3.047       2.033       1.022      1.0115E-02
   4    9.990       8.738       7.478       6.201       4.937       3.958       2.992       2.009       1.012      1.0023E-02
   5    9.989       8.728       7.441       6.075       4.448       3.832       2.956       1.997       1.009      9.9873E-03
   6    9.990       8.742       7.484       6.209       4.946       3.968       3.001       2.015       1.015      1.0054E-02
   7    9.990       8.766       7.544       6.332       5.161       4.093       3.064       2.046       1.028      1.0180E-02
   8    9.990       8.789       7.594       6.416       5.271       4.178       3.118       2.076       1.041      1.0311E-02
   9    9.990       8.804       7.626       6.465       5.330       4.229       3.154       2.097       1.052      1.0411E-02
  10    9.990       8.812       7.642       6.488       5.357       4.252       3.172       2.109       1.057      1.0464E-02

 HEAD WILL BE SAVED ON UNIT   51 AT END OF TIME STEP   72, STRESS PERIOD    3

 DRAWDOWN WILL BE SAVED ON UNIT   52 AT END OF TIME STEP   72, STRESS PERIOD    3
1
  VOLUMETRIC BUDGET FOR ENTIRE MODEL AT END OF TIME STEP   72, STRESS PERIOD   3
  ------------------------------------------------------------------------------

     CUMULATIVE VOLUMES      L**3       RATES FOR THIS TIME STEP      L**3/T
     ------------------                 ------------------------

           IN:                                      IN:
           ---                                      ---
             STORAGE =       25998.8535               STORAGE =       9.2097E-02
       CONSTANT HEAD =           0.0000         CONSTANT HEAD =           0.0000
               WELLS =           0.0000                 WELLS =           0.0000
     HEAD DEP BOUNDS =       91395.1172       HEAD DEP BOUNDS =         609.9118

            TOTAL IN =      117393.9688              TOTAL IN =         610.0039

          OUT:                                     OUT:
          ----                                     ----
             STORAGE =           0.0000               STORAGE =           0.0000
       CONSTANT HEAD =           0.0000         CONSTANT HEAD =           0.0000
               WELLS =        7200.0000                 WELLS =         100.0000
     HEAD DEP BOUNDS =      110230.4062       HEAD DEP BOUNDS =         510.0444

           TOTAL OUT =      117430.4062             TOTAL OUT =         610.0444

            IN - OUT =         -36.4375              IN - OUT =      -4.0527E-02

 PERCENT DISCREPANCY =          -0.03     PERCENT DISCREPANCY =          -0.01






         TIME SUMMARY AT END OF TIME STEP   72 IN STRESS PERIOD    3
                    SECONDS     MINUTES      HOURS       DAYS        YEARS
                    -----------------------------------------------------------
   TIME STEP LENGTH  86400.      1440.0      24.000      1.0000     2.73785E-03
 STRESS PERIOD TIME 6.22080E+06 1.03680E+05  1728.0      72.000     0.19713    
         TOTAL TIME 1.49472E+07 2.49120E+05  4152.0      173.00     0.47365    
1

 SOLVING FOR HEAD 
     1 ITERATIONS FOR TIME STEP  73 IN STRESS PERIOD    3

 OUTPUT CONTROL FOR STRESS PERIOD    3   TIME STEP   73
    SAVE HEAD FOR ALL LAYERS
    SAVE DRAWDOWN FOR ALL LAYERS
    SAVE BUDGET
    PRINT HEAD FOR ALL LAYERS
    PRINT BUDGET
 UBDSV1 SAVING "         STORAGE" ON UNIT  53 AT TIME STEP 73, STRESS PERIOD   3
 UBDSV2 SAVING "   CONSTANT HEAD" ON UNIT  53 AT TIME STEP 73, STRESS PERIOD   3
 UBDSV1 SAVING "FLOW RIGHT FACE " ON UNIT  53 AT TIME STEP 73, STRESS PERIOD   3
 UBDSV1 SAVING "FLOW FRONT FACE " ON UNIT  53 AT TIME STEP 73, STRESS PERIOD   3
1
              HEAD IN LAYER   1 AT END OF TIME STEP  73 IN STRESS PERIOD    3
  ---------------------------------------------------------------------------

            1           2           3           4           5           6           7           8           9          10
 ........................................................................................................................
   1    9.990       8.786       7.592       6.418       5.277       4.178       3.112       2.068       1.036      1.0260E-02
   2    9.990       8.776       7.571       6.385       5.236       4.144       3.089       2.055       1.031      1.0206E-02
   3    9.990       8.759       7.530       6.314       5.140       4.072       3.047       2.033       1.022      1.0114E-02
   4    9.990       8.738       7.478       6.201       4.937       3.958       2.992       2.009       1.012      1.0022E-02
   5    9.989       8.728       7.441       6.075       4.448       3.832       2.956       1.997       1.009      9.9872E-03
   6    9.990       8.742       7.484       6.209       4.946       3.968       3.001       2.015       1.015      1.0054E-02
   7    9.990       8.766       7.544       6.332       5.161       4.093       3.064       2.046       1.028      1.0180E-02
   8    9.990       8.788       7.594       6.416       5.271       4.178       3.118       2.076       1.041      1.0310E-02
   9    9.990       8.804       7.626       6.465       5.330       4.229       3.154       2.097       1.052      1.0411E-02
  10    9.990       8.812       7.642       6.488       5.357       4.252       3.172       2.109       1.057      1.0464E-02

 HEAD WILL BE SAVED ON UNIT   51 AT END OF TIME STEP   73, STRESS PERIOD    3

 DRAWDOWN WILL BE SAVED ON UNIT   52 AT END OF TIME STEP   73, STRESS PERIOD    3
1
  VOLUMETRIC BUDGET FOR ENTIRE MODEL AT END OF TIME STEP   73, STRESS PERIOD   3
  ------------------------------------------------------------------------------

     CUMULATIVE VOLUMES      L**3       RATES FOR THIS TIME STEP      L**3/T
     ------------------                 ------------------------

           IN:                                      IN:
           ---                                      ---
             STORAGE =       25998.9375               STORAGE =       8.4624E-02
       CONSTANT HEAD =           0.0000         CONSTANT HEAD =           0.0000
               WELLS =           0.0000                 WELLS =           0.0000
     HEAD DEP BOUNDS =       92005.0312       HEAD DEP BOUNDS =         609.9168

            TOTAL IN =      118003.9688              TOTAL IN =         610.0014

          OUT:                                     OUT:
          ----                                     ----
             STORAGE =           0.0000               STORAGE =           0.0000
       CONSTANT HEAD =           0.0000         CONSTANT HEAD =           0.0000
               WELLS =        7300.0000                 WELLS =         100.0000
     HEAD DEP BOUNDS =      110740.4453       HEAD DEP BOUNDS =         510.0392

           TOTAL OUT =      118040.4453             TOTAL OUT =         610.0392

            IN - OUT =         -36.4766              IN - OUT =      -3.7781E-02

 PERCENT DISCREPANCY =          -0.03     PERCENT DISCREPANCY =          -0.01






         TIME SUMMARY AT END OF TIME STEP   73 IN STRESS PERIOD    3
                    SECONDS     MINUTES      HOURS       DAYS        YEARS
                    -----------------------------------------------------------
   TIME STEP LENGTH  86400.      1440.0      24.000      1.0000     2.73785E-03
 STRESS PERIOD TIME 6.30720E+06 1.05120E+05  1752.0      73.000     0.19986    
         TOTAL TIME 1.50336E+07 2.50560E+05  4176.0      174.00     0.47639    
1

 SOLVING FOR HEAD 
     1 ITERATIONS FOR TIME STEP  74 IN STRESS PERIOD    3

 OUTPUT CONTROL FOR STRESS PERIOD    3   TIME STEP   74
    SAVE HEAD FOR ALL LAYERS
    SAVE DRAWDOWN FOR ALL LAYERS
    SAVE BUDGET
    PRINT HEAD FOR ALL LAYERS
    PRINT BUDGET
 UBDSV1 SAVING "         STORAGE" ON UNIT  53 AT TIME STEP 74, STRESS PERIOD   3
 UBDSV2 SAVING "   CONSTANT HEAD" ON UNIT  53 AT TIME STEP 74, STRESS PERIOD   3
 UBDSV1 SAVING "FLOW RIGHT FACE " ON UNIT  53 AT TIME STEP 74, STRESS PERIOD   3
 UBDSV1 SAVING "FLOW FRONT FACE " ON UNIT  53 AT TIME STEP 74, STRESS PERIOD   3
1
              HEAD IN LAYER   1 AT END OF TIME STEP  74 IN STRESS PERIOD    3
  ---------------------------------------------------------------------------

            1           2           3           4           5           6           7           8           9          10
 ........................................................................................................................
   1    9.990       8.786       7.591       6.418       5.277       4.178       3.112       2.068       1.036      1.0260E-02
   2    9.990       8.776       7.571       6.385       5.236       4.144       3.089       2.055       1.031      1.0206E-02
   3    9.990       8.759       7.530       6.314       5.140       4.072       3.047       2.033       1.022      1.0114E-02
   4    9.990       8.738       7.478       6.201       4.937       3.958       2.992       2.009       1.012      1.0022E-02
   5    9.989       8.728       7.441       6.075       4.448       3.832       2.956       1.997       1.009      9.9871E-03
   6    9.990       8.742       7.484       6.209       4.946       3.968       3.001       2.015       1.015      1.0054E-02
   7    9.990       8.766       7.544       6.332       5.161       4.093       3.064       2.046       1.028      1.0180E-02
   8    9.990       8.788       7.594       6.416       5.271       4.177       3.118       2.076       1.041      1.0310E-02
   9    9.990       8.804       7.626       6.465       5.330       4.229       3.154       2.097       1.052      1.0411E-02
  10    9.990       8.812       7.642       6.488       5.357       4.252       3.172       2.109       1.057      1.0464E-02

 HEAD WILL BE SAVED ON UNIT   51 AT END OF TIME STEP   74, STRESS PERIOD    3

 DRAWDOWN WILL BE SAVED ON UNIT   52 AT END OF TIME STEP   74, STRESS PERIOD    3
1
  VOLUMETRIC BUDGET FOR ENTIRE MODEL AT END OF TIME STEP   74, STRESS PERIOD   3
  ------------------------------------------------------------------------------

     CUMULATIVE VOLUMES      L**3       RATES FOR THIS TIME STEP      L**3/T
     ------------------                 ------------------------

           IN:                                      IN:
           ---                                      ---
             STORAGE =       25999.0156               STORAGE =       7.7986E-02
       CONSTANT HEAD =           0.0000         CONSTANT HEAD =           0.0000
               WELLS =           0.0000                 WELLS =           0.0000
     HEAD DEP BOUNDS =       92614.9531       HEAD DEP BOUNDS =         609.9214

            TOTAL IN =      118613.9688              TOTAL IN =         609.9995

          OUT:                                     OUT:
          ----                                     ----
             STORAGE =           0.0000               STORAGE =           0.0000
       CONSTANT HEAD =           0.0000         CONSTANT HEAD =           0.0000
               WELLS =        7400.0000                 WELLS =         100.0000
     HEAD DEP BOUNDS =      111250.4766       HEAD DEP BOUNDS =         510.0345

           TOTAL OUT =      118650.4766             TOTAL OUT =         610.0344

            IN - OUT =         -36.5078              IN - OUT =      -3.4973E-02

 PERCENT DISCREPANCY =          -0.03     PERCENT DISCREPANCY =          -0.01






         TIME SUMMARY AT END OF TIME STEP   74 IN STRESS PERIOD    3
                    SECONDS     MINUTES      HOURS       DAYS        YEARS
                    -----------------------------------------------------------
   TIME STEP LENGTH  86400.      1440.0      24.000      1.0000     2.73785E-03
 STRESS PERIOD TIME 6.39360E+06 1.06560E+05  1776.0      74.000     0.20260    
         TOTAL TIME 1.51200E+07 2.52000E+05  4200.0      175.00     0.47912    
1

 SOLVING FOR HEAD 
     1 ITERATIONS FOR TIME STEP  75 IN STRESS PERIOD    3

 OUTPUT CONTROL FOR STRESS PERIOD    3   TIME STEP   75
    SAVE HEAD FOR ALL LAYERS
    SAVE DRAWDOWN FOR ALL LAYERS
    SAVE BUDGET
    PRINT HEAD FOR ALL LAYERS
    PRINT BUDGET
 UBDSV1 SAVING "         STORAGE" ON UNIT  53 AT TIME STEP 75, STRESS PERIOD   3
 UBDSV2 SAVING "   CONSTANT HEAD" ON UNIT  53 AT TIME STEP 75, STRESS PERIOD   3
 UBDSV1 SAVING "FLOW RIGHT FACE " ON UNIT  53 AT TIME STEP 75, STRESS PERIOD   3
 UBDSV1 SAVING "FLOW FRONT FACE " ON UNIT  53 AT TIME STEP 75, STRESS PERIOD   3
1
              HEAD IN LAYER   1 AT END OF TIME STEP  75 IN STRESS PERIOD    3
  ---------------------------------------------------------------------------

            1           2           3           4           5           6           7           8           9          10
 ........................................................................................................................
   1    9.990       8.786       7.591       6.418       5.277       4.178       3.112       2.068       1.036      1.0259E-02
   2    9.990       8.776       7.571       6.385       5.236       4.144       3.089       2.055       1.031      1.0206E-02
   3    9.990       8.759       7.530       6.314       5.140       4.072       3.047       2.033       1.022      1.0114E-02
   4    9.990       8.738       7.478       6.201       4.937       3.958       2.992       2.009       1.012      1.0022E-02
   5    9.989       8.728       7.441       6.075       4.447       3.832       2.956       1.997       1.009      9.9870E-03
   6    9.990       8.742       7.484       6.209       4.946       3.968       3.001       2.015       1.015      1.0053E-02
   7    9.990       8.766       7.544       6.332       5.161       4.093       3.064       2.046       1.028      1.0179E-02
   8    9.990       8.788       7.594       6.416       5.271       4.177       3.118       2.076       1.041      1.0310E-02
   9    9.990       8.804       7.626       6.465       5.330       4.229       3.154       2.097       1.052      1.0411E-02
  10    9.990       8.812       7.642       6.488       5.357       4.252       3.172       2.109       1.057      1.0464E-02

 HEAD WILL BE SAVED ON UNIT   51 AT END OF TIME STEP   75, STRESS PERIOD    3

 DRAWDOWN WILL BE SAVED ON UNIT   52 AT END OF TIME STEP   75, STRESS PERIOD    3
1
  VOLUMETRIC BUDGET FOR ENTIRE MODEL AT END OF TIME STEP   75, STRESS PERIOD   3
  ------------------------------------------------------------------------------

     CUMULATIVE VOLUMES      L**3       RATES FOR THIS TIME STEP      L**3/T
     ------------------                 ------------------------

           IN:                                      IN:
           ---                                      ---
             STORAGE =       25999.0879               STORAGE =       7.1646E-02
       CONSTANT HEAD =           0.0000         CONSTANT HEAD =           0.0000
               WELLS =           0.0000                 WELLS =           0.0000
     HEAD DEP BOUNDS =       93224.8750       HEAD DEP BOUNDS =         609.9257

            TOTAL IN =      119223.9609              TOTAL IN =         609.9974

          OUT:                                     OUT:
          ----                                     ----
             STORAGE =           0.0000               STORAGE =           0.0000
       CONSTANT HEAD =           0.0000         CONSTANT HEAD =           0.0000
               WELLS =        7500.0000                 WELLS =         100.0000
     HEAD DEP BOUNDS =      111760.5078       HEAD DEP BOUNDS =         510.0301

           TOTAL OUT =      119260.5078             TOTAL OUT =         610.0301

            IN - OUT =         -36.5469              IN - OUT =      -3.2715E-02

 PERCENT DISCREPANCY =          -0.03     PERCENT DISCREPANCY =          -0.01






         TIME SUMMARY AT END OF TIME STEP   75 IN STRESS PERIOD    3
                    SECONDS     MINUTES      HOURS       DAYS        YEARS
                    -----------------------------------------------------------
   TIME STEP LENGTH  86400.      1440.0      24.000      1.0000     2.73785E-03
 STRESS PERIOD TIME 6.48000E+06 1.08000E+05  1800.0      75.000     0.20534    
         TOTAL TIME 1.52064E+07 2.53440E+05  4224.0      176.00     0.48186    
1

 SOLVING FOR HEAD 
     1 ITERATIONS FOR TIME STEP  76 IN STRESS PERIOD    3

 OUTPUT CONTROL FOR STRESS PERIOD    3   TIME STEP   76
    SAVE HEAD FOR ALL LAYERS
    SAVE DRAWDOWN FOR ALL LAYERS
    SAVE BUDGET
    PRINT HEAD FOR ALL LAYERS
    PRINT BUDGET
 UBDSV1 SAVING "         STORAGE" ON UNIT  53 AT TIME STEP 76, STRESS PERIOD   3
 UBDSV2 SAVING "   CONSTANT HEAD" ON UNIT  53 AT TIME STEP 76, STRESS PERIOD   3
 UBDSV1 SAVING "FLOW RIGHT FACE " ON UNIT  53 AT TIME STEP 76, STRESS PERIOD   3
 UBDSV1 SAVING "FLOW FRONT FACE " ON UNIT  53 AT TIME STEP 76, STRESS PERIOD   3
1
              HEAD IN LAYER   1 AT END OF TIME STEP  76 IN STRESS PERIOD    3
  ---------------------------------------------------------------------------

            1           2           3           4           5           6           7           8           9          10
 ........................................................................................................................
   1    9.990       8.786       7.591       6.418       5.277       4.178       3.112       2.068       1.036      1.0259E-02
   2    9.990       8.776       7.571       6.385       5.236       4.144       3.089       2.055       1.031      1.0206E-02
   3    9.990       8.759       7.530       6.314       5.140       4.072       3.047       2.033       1.022      1.0114E-02
   4    9.990       8.738       7.478       6.201       4.937       3.958       2.992       2.009       1.012      1.0022E-02
   5    9.989       8.728       7.441       6.075       4.447       3.832       2.955       1.997       1.009      9.9870E-03
   6    9.990       8.742       7.484       6.209       4.946       3.968       3.001       2.015       1.015      1.0053E-02
   7    9.990       8.766       7.544       6.332       5.161       4.093       3.064       2.046       1.028      1.0179E-02
   8    9.990       8.788       7.594       6.415       5.271       4.177       3.118       2.076       1.041      1.0310E-02
   9    9.990       8.804       7.626       6.465       5.330       4.228       3.154       2.097       1.052      1.0410E-02
  10    9.990       8.812       7.642       6.488       5.357       4.252       3.172       2.109       1.057      1.0463E-02

 HEAD WILL BE SAVED ON UNIT   51 AT END OF TIME STEP   76, STRESS PERIOD    3

 DRAWDOWN WILL BE SAVED ON UNIT   52 AT END OF TIME STEP   76, STRESS PERIOD    3
1
  VOLUMETRIC BUDGET FOR ENTIRE MODEL AT END OF TIME STEP   76, STRESS PERIOD   3
  ------------------------------------------------------------------------------

     CUMULATIVE VOLUMES      L**3       RATES FOR THIS TIME STEP      L**3/T
     ------------------                 ------------------------

           IN:                                      IN:
           ---                                      ---
             STORAGE =       25999.1543               STORAGE =       6.5920E-02
       CONSTANT HEAD =           0.0000         CONSTANT HEAD =           0.0000
               WELLS =           0.0000                 WELLS =           0.0000
     HEAD DEP BOUNDS =       93834.8047       HEAD DEP BOUNDS =         609.9296

            TOTAL IN =      119833.9609              TOTAL IN =         609.9955

          OUT:                                     OUT:
          ----                                     ----
             STORAGE =           0.0000               STORAGE =           0.0000
       CONSTANT HEAD =           0.0000         CONSTANT HEAD =           0.0000
               WELLS =        7600.0000                 WELLS =         100.0000
     HEAD DEP BOUNDS =      112270.5312       HEAD DEP BOUNDS =         510.0260

           TOTAL OUT =      119870.5312             TOTAL OUT =         610.0260

            IN - OUT =         -36.5703              IN - OUT =      -3.0457E-02

 PERCENT DISCREPANCY =          -0.03     PERCENT DISCREPANCY =          -0.00






         TIME SUMMARY AT END OF TIME STEP   76 IN STRESS PERIOD    3
                    SECONDS     MINUTES      HOURS       DAYS        YEARS
                    -----------------------------------------------------------
   TIME STEP LENGTH  86400.      1440.0      24.000      1.0000     2.73785E-03
 STRESS PERIOD TIME 6.56640E+06 1.09440E+05  1824.0      76.000     0.20808    
         TOTAL TIME 1.52928E+07 2.54880E+05  4248.0      177.00     0.48460    
1

 SOLVING FOR HEAD 
     1 ITERATIONS FOR TIME STEP  77 IN STRESS PERIOD    3

 OUTPUT CONTROL FOR STRESS PERIOD    3   TIME STEP   77
    SAVE HEAD FOR ALL LAYERS
    SAVE DRAWDOWN FOR ALL LAYERS
    SAVE BUDGET
    PRINT HEAD FOR ALL LAYERS
    PRINT BUDGET
 UBDSV1 SAVING "         STORAGE" ON UNIT  53 AT TIME STEP 77, STRESS PERIOD   3
 UBDSV2 SAVING "   CONSTANT HEAD" ON UNIT  53 AT TIME STEP 77, STRESS PERIOD   3
 UBDSV1 SAVING "FLOW RIGHT FACE " ON UNIT  53 AT TIME STEP 77, STRESS PERIOD   3
 UBDSV1 SAVING "FLOW FRONT FACE " ON UNIT  53 AT TIME STEP 77, STRESS PERIOD   3
1
              HEAD IN LAYER   1 AT END OF TIME STEP  77 IN STRESS PERIOD    3
  ---------------------------------------------------------------------------

            1           2           3           4           5           6           7           8           9          10
 ........................................................................................................................
   1    9.990       8.786       7.591       6.418       5.277       4.178       3.112       2.068       1.036      1.0259E-02
   2    9.990       8.776       7.571       6.385       5.236       4.144       3.089       2.055       1.031      1.0206E-02
   3    9.990       8.759       7.530       6.314       5.140       4.072       3.047       2.033       1.022      1.0114E-02
   4    9.990       8.738       7.478       6.201       4.937       3.958       2.992       2.009       1.012      1.0022E-02
   5    9.989       8.728       7.441       6.075       4.447       3.832       2.955       1.997       1.009      9.9869E-03
   6    9.990       8.742       7.484       6.209       4.946       3.968       3.001       2.015       1.015      1.0053E-02
   7    9.990       8.766       7.544       6.332       5.161       4.092       3.064       2.046       1.028      1.0179E-02
   8    9.990       8.788       7.594       6.415       5.271       4.177       3.118       2.075       1.041      1.0310E-02
   9    9.990       8.804       7.626       6.465       5.330       4.228       3.154       2.097       1.051      1.0410E-02
  10    9.990       8.812       7.642       6.488       5.357       4.252       3.172       2.109       1.057      1.0463E-02

 HEAD WILL BE SAVED ON UNIT   51 AT END OF TIME STEP   77, STRESS PERIOD    3

 DRAWDOWN WILL BE SAVED ON UNIT   52 AT END OF TIME STEP   77, STRESS PERIOD    3
1
  VOLUMETRIC BUDGET FOR ENTIRE MODEL AT END OF TIME STEP   77, STRESS PERIOD   3
  ------------------------------------------------------------------------------

     CUMULATIVE VOLUMES      L**3       RATES FOR THIS TIME STEP      L**3/T
     ------------------                 ------------------------

           IN:                                      IN:
           ---                                      ---
             STORAGE =       25999.2148               STORAGE =       6.0916E-02
       CONSTANT HEAD =           0.0000         CONSTANT HEAD =           0.0000
               WELLS =           0.0000                 WELLS =           0.0000
     HEAD DEP BOUNDS =       94444.7344       HEAD DEP BOUNDS =         609.9332

            TOTAL IN =      120443.9531              TOTAL IN =         609.9941

          OUT:                                     OUT:
          ----                                     ----
             STORAGE =           0.0000               STORAGE =           0.0000
       CONSTANT HEAD =           0.0000         CONSTANT HEAD =           0.0000
               WELLS =        7700.0000                 WELLS =         100.0000
     HEAD DEP BOUNDS =      112780.5547       HEAD DEP BOUNDS =         510.0223

           TOTAL OUT =      120480.5547             TOTAL OUT =         610.0223

            IN - OUT =         -36.6016              IN - OUT =      -2.8198E-02

 PERCENT DISCREPANCY =          -0.03     PERCENT DISCREPANCY =          -0.00






         TIME SUMMARY AT END OF TIME STEP   77 IN STRESS PERIOD    3
                    SECONDS     MINUTES      HOURS       DAYS        YEARS
                    -----------------------------------------------------------
   TIME STEP LENGTH  86400.      1440.0      24.000      1.0000     2.73785E-03
 STRESS PERIOD TIME 6.65280E+06 1.10880E+05  1848.0      77.000     0.21081    
         TOTAL TIME 1.53792E+07 2.56320E+05  4272.0      178.00     0.48734    
1

 SOLVING FOR HEAD 
     1 ITERATIONS FOR TIME STEP  78 IN STRESS PERIOD    3

 OUTPUT CONTROL FOR STRESS PERIOD    3   TIME STEP   78
    SAVE HEAD FOR ALL LAYERS
    SAVE DRAWDOWN FOR ALL LAYERS
    SAVE BUDGET
    PRINT HEAD FOR ALL LAYERS
    PRINT BUDGET
 UBDSV1 SAVING "         STORAGE" ON UNIT  53 AT TIME STEP 78, STRESS PERIOD   3
 UBDSV2 SAVING "   CONSTANT HEAD" ON UNIT  53 AT TIME STEP 78, STRESS PERIOD   3
 UBDSV1 SAVING "FLOW RIGHT FACE " ON UNIT  53 AT TIME STEP 78, STRESS PERIOD   3
 UBDSV1 SAVING "FLOW FRONT FACE " ON UNIT  53 AT TIME STEP 78, STRESS PERIOD   3
1
              HEAD IN LAYER   1 AT END OF TIME STEP  78 IN STRESS PERIOD    3
  ---------------------------------------------------------------------------

            1           2           3           4           5           6           7           8           9          10
 ........................................................................................................................
   1    9.990       8.786       7.591       6.418       5.277       4.178       3.112       2.068       1.036      1.0259E-02
   2    9.990       8.776       7.571       6.385       5.236       4.144       3.089       2.055       1.031      1.0205E-02
   3    9.990       8.759       7.530       6.314       5.140       4.072       3.047       2.033       1.022      1.0114E-02
   4    9.990       8.738       7.478       6.201       4.937       3.958       2.992       2.009       1.012      1.0022E-02
   5    9.989       8.728       7.441       6.075       4.447       3.832       2.955       1.997       1.009      9.9868E-03
   6    9.990       8.742       7.484       6.209       4.946       3.968       3.000       2.015       1.015      1.0053E-02
   7    9.990       8.766       7.544       6.332       5.161       4.092       3.064       2.046       1.028      1.0179E-02
   8    9.990       8.788       7.594       6.415       5.271       4.177       3.118       2.075       1.041      1.0310E-02
   9    9.990       8.804       7.626       6.465       5.330       4.228       3.154       2.097       1.051      1.0410E-02
  10    9.990       8.812       7.642       6.488       5.357       4.252       3.172       2.109       1.057      1.0463E-02

 HEAD WILL BE SAVED ON UNIT   51 AT END OF TIME STEP   78, STRESS PERIOD    3

 DRAWDOWN WILL BE SAVED ON UNIT   52 AT END OF TIME STEP   78, STRESS PERIOD    3
1
  VOLUMETRIC BUDGET FOR ENTIRE MODEL AT END OF TIME STEP   78, STRESS PERIOD   3
  ------------------------------------------------------------------------------

     CUMULATIVE VOLUMES      L**3       RATES FOR THIS TIME STEP      L**3/T
     ------------------                 ------------------------

           IN:                                      IN:
           ---                                      ---
             STORAGE =       25999.2715               STORAGE =       5.5878E-02
       CONSTANT HEAD =           0.0000         CONSTANT HEAD =           0.0000
               WELLS =           0.0000                 WELLS =           0.0000
     HEAD DEP BOUNDS =       95054.6719       HEAD DEP BOUNDS =         609.9366

            TOTAL IN =      121053.9453              TOTAL IN =         609.9924

          OUT:                                     OUT:
          ----                                     ----
             STORAGE =           0.0000               STORAGE =           0.0000
       CONSTANT HEAD =           0.0000         CONSTANT HEAD =           0.0000
               WELLS =        7800.0000                 WELLS =         100.0000
     HEAD DEP BOUNDS =      113290.5703       HEAD DEP BOUNDS =         510.0189

           TOTAL OUT =      121090.5703             TOTAL OUT =         610.0189

            IN - OUT =         -36.6250              IN - OUT =      -2.6489E-02

 PERCENT DISCREPANCY =          -0.03     PERCENT DISCREPANCY =          -0.00






         TIME SUMMARY AT END OF TIME STEP   78 IN STRESS PERIOD    3
                    SECONDS     MINUTES      HOURS       DAYS        YEARS
                    -----------------------------------------------------------
   TIME STEP LENGTH  86400.      1440.0      24.000      1.0000     2.73785E-03
 STRESS PERIOD TIME 6.73920E+06 1.12320E+05  1872.0      78.000     0.21355    
         TOTAL TIME 1.54656E+07 2.57760E+05  4296.0      179.00     0.49008    
1

 SOLVING FOR HEAD 
     1 ITERATIONS FOR TIME STEP  79 IN STRESS PERIOD    3

 OUTPUT CONTROL FOR STRESS PERIOD    3   TIME STEP   79
    SAVE HEAD FOR ALL LAYERS
    SAVE DRAWDOWN FOR ALL LAYERS
    SAVE BUDGET
    PRINT HEAD FOR ALL LAYERS
    PRINT BUDGET
 UBDSV1 SAVING "         STORAGE" ON UNIT  53 AT TIME STEP 79, STRESS PERIOD   3
 UBDSV2 SAVING "   CONSTANT HEAD" ON UNIT  53 AT TIME STEP 79, STRESS PERIOD   3
 UBDSV1 SAVING "FLOW RIGHT FACE " ON UNIT  53 AT TIME STEP 79, STRESS PERIOD   3
 UBDSV1 SAVING "FLOW FRONT FACE " ON UNIT  53 AT TIME STEP 79, STRESS PERIOD   3
1
              HEAD IN LAYER   1 AT END OF TIME STEP  79 IN STRESS PERIOD    3
  ---------------------------------------------------------------------------

            1           2           3           4           5           6           7           8           9          10
 ........................................................................................................................
   1    9.990       8.786       7.591       6.418       5.277       4.178       3.111       2.068       1.036      1.0259E-02
   2    9.990       8.776       7.571       6.385       5.236       4.144       3.089       2.055       1.031      1.0205E-02
   3    9.990       8.759       7.530       6.314       5.140       4.072       3.047       2.033       1.022      1.0114E-02
   4    9.990       8.738       7.477       6.201       4.936       3.958       2.992       2.009       1.012      1.0022E-02
   5    9.989       8.728       7.441       6.075       4.447       3.832       2.955       1.997       1.009      9.9867E-03
   6    9.990       8.742       7.484       6.209       4.946       3.968       3.000       2.015       1.015      1.0053E-02
   7    9.990       8.766       7.544       6.332       5.160       4.092       3.064       2.046       1.028      1.0179E-02
   8    9.990       8.788       7.594       6.415       5.271       4.177       3.118       2.075       1.041      1.0310E-02
   9    9.990       8.804       7.626       6.465       5.330       4.228       3.154       2.097       1.051      1.0410E-02
  10    9.990       8.812       7.642       6.488       5.357       4.252       3.172       2.109       1.057      1.0463E-02

 HEAD WILL BE SAVED ON UNIT   51 AT END OF TIME STEP   79, STRESS PERIOD    3

 DRAWDOWN WILL BE SAVED ON UNIT   52 AT END OF TIME STEP   79, STRESS PERIOD    3
1
  VOLUMETRIC BUDGET FOR ENTIRE MODEL AT END OF TIME STEP   79, STRESS PERIOD   3
  ------------------------------------------------------------------------------

     CUMULATIVE VOLUMES      L**3       RATES FOR THIS TIME STEP      L**3/T
     ------------------                 ------------------------

           IN:                                      IN:
           ---                                      ---
             STORAGE =       25999.3223               STORAGE =       5.1549E-02
       CONSTANT HEAD =           0.0000         CONSTANT HEAD =           0.0000
               WELLS =           0.0000                 WELLS =           0.0000
     HEAD DEP BOUNDS =       95664.6094       HEAD DEP BOUNDS =         609.9396

            TOTAL IN =      121663.9297              TOTAL IN =         609.9912

          OUT:                                     OUT:
          ----                                     ----
             STORAGE =           0.0000               STORAGE =           0.0000
       CONSTANT HEAD =           0.0000         CONSTANT HEAD =           0.0000
               WELLS =        7900.0000                 WELLS =         100.0000
     HEAD DEP BOUNDS =      113800.5859       HEAD DEP BOUNDS =         510.0158

           TOTAL OUT =      121700.5859             TOTAL OUT =         610.0157

            IN - OUT =         -36.6562              IN - OUT =      -2.4536E-02

 PERCENT DISCREPANCY =          -0.03     PERCENT DISCREPANCY =          -0.00






         TIME SUMMARY AT END OF TIME STEP   79 IN STRESS PERIOD    3
                    SECONDS     MINUTES      HOURS       DAYS        YEARS
                    -----------------------------------------------------------
   TIME STEP LENGTH  86400.      1440.0      24.000      1.0000     2.73785E-03
 STRESS PERIOD TIME 6.82560E+06 1.13760E+05  1896.0      79.000     0.21629    
         TOTAL TIME 1.55520E+07 2.59200E+05  4320.0      180.00     0.49281    
1

 SOLVING FOR HEAD 
     1 ITERATIONS FOR TIME STEP  80 IN STRESS PERIOD    3

 OUTPUT CONTROL FOR STRESS PERIOD    3   TIME STEP   80
    SAVE HEAD FOR ALL LAYERS
    SAVE DRAWDOWN FOR ALL LAYERS
    SAVE BUDGET
    PRINT HEAD FOR ALL LAYERS
    PRINT BUDGET
 UBDSV1 SAVING "         STORAGE" ON UNIT  53 AT TIME STEP 80, STRESS PERIOD   3
 UBDSV2 SAVING "   CONSTANT HEAD" ON UNIT  53 AT TIME STEP 80, STRESS PERIOD   3
 UBDSV1 SAVING "FLOW RIGHT FACE " ON UNIT  53 AT TIME STEP 80, STRESS PERIOD   3
 UBDSV1 SAVING "FLOW FRONT FACE " ON UNIT  53 AT TIME STEP 80, STRESS PERIOD   3
1
              HEAD IN LAYER   1 AT END OF TIME STEP  80 IN STRESS PERIOD    3
  ---------------------------------------------------------------------------

            1           2           3           4           5           6           7           8           9          10
 ........................................................................................................................
   1    9.990       8.786       7.591       6.418       5.277       4.178       3.111       2.068       1.036      1.0259E-02
   2    9.990       8.776       7.571       6.385       5.236       4.144       3.089       2.055       1.031      1.0205E-02
   3    9.990       8.759       7.530       6.314       5.140       4.072       3.047       2.033       1.022      1.0114E-02
   4    9.990       8.738       7.477       6.201       4.936       3.958       2.992       2.009       1.012      1.0022E-02
   5    9.989       8.728       7.441       6.075       4.447       3.832       2.955       1.997       1.009      9.9867E-03
   6    9.990       8.742       7.484       6.209       4.946       3.968       3.000       2.015       1.015      1.0053E-02
   7    9.990       8.766       7.544       6.332       5.160       4.092       3.064       2.046       1.028      1.0179E-02
   8    9.990       8.788       7.594       6.415       5.271       4.177       3.118       2.075       1.041      1.0310E-02
   9    9.990       8.804       7.626       6.465       5.330       4.228       3.154       2.097       1.051      1.0410E-02
  10    9.990       8.812       7.642       6.488       5.357       4.252       3.172       2.109       1.057      1.0463E-02

 HEAD WILL BE SAVED ON UNIT   51 AT END OF TIME STEP   80, STRESS PERIOD    3

 DRAWDOWN WILL BE SAVED ON UNIT   52 AT END OF TIME STEP   80, STRESS PERIOD    3
1
  VOLUMETRIC BUDGET FOR ENTIRE MODEL AT END OF TIME STEP   80, STRESS PERIOD   3
  ------------------------------------------------------------------------------

     CUMULATIVE VOLUMES      L**3       RATES FOR THIS TIME STEP      L**3/T
     ------------------                 ------------------------

           IN:                                      IN:
           ---                                      ---
             STORAGE =       25999.3691               STORAGE =       4.7301E-02
       CONSTANT HEAD =           0.0000         CONSTANT HEAD =           0.0000
               WELLS =           0.0000                 WELLS =           0.0000
     HEAD DEP BOUNDS =       96274.5547       HEAD DEP BOUNDS =         609.9424

            TOTAL IN =      122273.9219              TOTAL IN =         609.9897

          OUT:                                     OUT:
          ----                                     ----
             STORAGE =           0.0000               STORAGE =           0.0000
       CONSTANT HEAD =           0.0000         CONSTANT HEAD =           0.0000
               WELLS =        8000.0000                 WELLS =         100.0000
     HEAD DEP BOUNDS =      114310.6016       HEAD DEP BOUNDS =         510.0129

           TOTAL OUT =      122310.6016             TOTAL OUT =         610.0129

            IN - OUT =         -36.6797              IN - OUT =      -2.3132E-02

 PERCENT DISCREPANCY =          -0.03     PERCENT DISCREPANCY =          -0.00






         TIME SUMMARY AT END OF TIME STEP   80 IN STRESS PERIOD    3
                    SECONDS     MINUTES      HOURS       DAYS        YEARS
                    -----------------------------------------------------------
   TIME STEP LENGTH  86400.      1440.0      24.000      1.0000     2.73785E-03
 STRESS PERIOD TIME 6.91200E+06 1.15200E+05  1920.0      80.000     0.21903    
         TOTAL TIME 1.56384E+07 2.60640E+05  4344.0      181.00     0.49555    
1

 SOLVING FOR HEAD 
     1 ITERATIONS FOR TIME STEP  81 IN STRESS PERIOD    3

 OUTPUT CONTROL FOR STRESS PERIOD    3   TIME STEP   81
    SAVE HEAD FOR ALL LAYERS
    SAVE DRAWDOWN FOR ALL LAYERS
    SAVE BUDGET
    PRINT HEAD FOR ALL LAYERS
    PRINT BUDGET
 UBDSV1 SAVING "         STORAGE" ON UNIT  53 AT TIME STEP 81, STRESS PERIOD   3
 UBDSV2 SAVING "   CONSTANT HEAD" ON UNIT  53 AT TIME STEP 81, STRESS PERIOD   3
 UBDSV1 SAVING "FLOW RIGHT FACE " ON UNIT  53 AT TIME STEP 81, STRESS PERIOD   3
 UBDSV1 SAVING "FLOW FRONT FACE " ON UNIT  53 AT TIME STEP 81, STRESS PERIOD   3
1
              HEAD IN LAYER   1 AT END OF TIME STEP  81 IN STRESS PERIOD    3
  ---------------------------------------------------------------------------

            1           2           3           4           5           6           7           8           9          10
 ........................................................................................................................
   1    9.990       8.786       7.591       6.418       5.277       4.177       3.111       2.068       1.036      1.0259E-02
   2    9.990       8.776       7.571       6.385       5.236       4.144       3.089       2.055       1.031      1.0205E-02
   3    9.990       8.759       7.530       6.314       5.140       4.072       3.047       2.033       1.021      1.0114E-02
   4    9.990       8.738       7.477       6.201       4.936       3.958       2.992       2.009       1.012      1.0022E-02
   5    9.989       8.728       7.441       6.075       4.447       3.832       2.955       1.997       1.009      9.9866E-03
   6    9.990       8.742       7.484       6.209       4.946       3.968       3.000       2.015       1.015      1.0053E-02
   7    9.990       8.766       7.544       6.332       5.160       4.092       3.064       2.046       1.028      1.0179E-02
   8    9.990       8.788       7.594       6.415       5.271       4.177       3.118       2.075       1.041      1.0310E-02
   9    9.990       8.804       7.626       6.465       5.330       4.228       3.154       2.097       1.051      1.0410E-02
  10    9.990       8.812       7.642       6.488       5.357       4.252       3.172       2.109       1.057      1.0463E-02

 HEAD WILL BE SAVED ON UNIT   51 AT END OF TIME STEP   81, STRESS PERIOD    3

 DRAWDOWN WILL BE SAVED ON UNIT   52 AT END OF TIME STEP   81, STRESS PERIOD    3
1
  VOLUMETRIC BUDGET FOR ENTIRE MODEL AT END OF TIME STEP   81, STRESS PERIOD   3
  ------------------------------------------------------------------------------

     CUMULATIVE VOLUMES      L**3       RATES FOR THIS TIME STEP      L**3/T
     ------------------                 ------------------------

           IN:                                      IN:
           ---                                      ---
             STORAGE =       25999.4121               STORAGE =       4.3522E-02
       CONSTANT HEAD =           0.0000         CONSTANT HEAD =           0.0000
               WELLS =           0.0000                 WELLS =           0.0000
     HEAD DEP BOUNDS =       96884.5000       HEAD DEP BOUNDS =         609.9450

            TOTAL IN =      122883.9141              TOTAL IN =         609.9885

          OUT:                                     OUT:
          ----                                     ----
             STORAGE =           0.0000               STORAGE =           0.0000
       CONSTANT HEAD =           0.0000         CONSTANT HEAD =           0.0000
               WELLS =        8100.0000                 WELLS =         100.0000
     HEAD DEP BOUNDS =      114820.6094       HEAD DEP BOUNDS =         510.0102

           TOTAL OUT =      122920.6094             TOTAL OUT =         610.0103

            IN - OUT =         -36.6953              IN - OUT =      -2.1729E-02

 PERCENT DISCREPANCY =          -0.03     PERCENT DISCREPANCY =          -0.00






         TIME SUMMARY AT END OF TIME STEP   81 IN STRESS PERIOD    3
                    SECONDS     MINUTES      HOURS       DAYS        YEARS
                    -----------------------------------------------------------
   TIME STEP LENGTH  86400.      1440.0      24.000      1.0000     2.73785E-03
 STRESS PERIOD TIME 6.99840E+06 1.16640E+05  1944.0      81.000     0.22177    
         TOTAL TIME 1.57248E+07 2.62080E+05  4368.0      182.00     0.49829    
1

 SOLVING FOR HEAD 
     1 ITERATIONS FOR TIME STEP  82 IN STRESS PERIOD    3

 OUTPUT CONTROL FOR STRESS PERIOD    3   TIME STEP   82
    SAVE HEAD FOR ALL LAYERS
    SAVE DRAWDOWN FOR ALL LAYERS
    SAVE BUDGET
    PRINT HEAD FOR ALL LAYERS
    PRINT BUDGET
 UBDSV1 SAVING "         STORAGE" ON UNIT  53 AT TIME STEP 82, STRESS PERIOD   3
 UBDSV2 SAVING "   CONSTANT HEAD" ON UNIT  53 AT TIME STEP 82, STRESS PERIOD   3
 UBDSV1 SAVING "FLOW RIGHT FACE " ON UNIT  53 AT TIME STEP 82, STRESS PERIOD   3
 UBDSV1 SAVING "FLOW FRONT FACE " ON UNIT  53 AT TIME STEP 82, STRESS PERIOD   3
1
              HEAD IN LAYER   1 AT END OF TIME STEP  82 IN STRESS PERIOD    3
  ---------------------------------------------------------------------------

            1           2           3           4           5           6           7           8           9          10
 ........................................................................................................................
   1    9.990       8.786       7.591       6.418       5.277       4.177       3.111       2.068       1.036      1.0259E-02
   2    9.990       8.776       7.571       6.385       5.236       4.144       3.089       2.055       1.031      1.0205E-02
   3    9.990       8.759       7.530       6.314       5.140       4.072       3.047       2.033       1.021      1.0114E-02
   4    9.990       8.738       7.477       6.201       4.936       3.958       2.992       2.009       1.012      1.0022E-02
   5    9.989       8.728       7.441       6.075       4.447       3.832       2.955       1.997       1.009      9.9866E-03
   6    9.990       8.742       7.484       6.209       4.946       3.968       3.000       2.014       1.015      1.0053E-02
   7    9.990       8.766       7.544       6.332       5.160       4.092       3.064       2.046       1.028      1.0179E-02
   8    9.990       8.788       7.594       6.415       5.271       4.177       3.118       2.075       1.041      1.0310E-02
   9    9.990       8.804       7.626       6.465       5.330       4.228       3.154       2.097       1.051      1.0410E-02
  10    9.990       8.812       7.642       6.488       5.357       4.252       3.172       2.109       1.057      1.0463E-02

 HEAD WILL BE SAVED ON UNIT   51 AT END OF TIME STEP   82, STRESS PERIOD    3

 DRAWDOWN WILL BE SAVED ON UNIT   52 AT END OF TIME STEP   82, STRESS PERIOD    3
1
  VOLUMETRIC BUDGET FOR ENTIRE MODEL AT END OF TIME STEP   82, STRESS PERIOD   3
  ------------------------------------------------------------------------------

     CUMULATIVE VOLUMES      L**3       RATES FOR THIS TIME STEP      L**3/T
     ------------------                 ------------------------

           IN:                                      IN:
           ---                                      ---
             STORAGE =       25999.4512               STORAGE =       3.9911E-02
       CONSTANT HEAD =           0.0000         CONSTANT HEAD =           0.0000
               WELLS =           0.0000                 WELLS =           0.0000
     HEAD DEP BOUNDS =       97494.4453       HEAD DEP BOUNDS =         609.9474

            TOTAL IN =      123493.8984              TOTAL IN =         609.9873

          OUT:                                     OUT:
          ----                                     ----
             STORAGE =           0.0000               STORAGE =           0.0000
       CONSTANT HEAD =           0.0000         CONSTANT HEAD =           0.0000
               WELLS =        8200.0000                 WELLS =         100.0000
     HEAD DEP BOUNDS =      115330.6172       HEAD DEP BOUNDS =         510.0078

           TOTAL OUT =      123530.6172             TOTAL OUT =         610.0078

            IN - OUT =         -36.7188              IN - OUT =      -2.0508E-02

 PERCENT DISCREPANCY =          -0.03     PERCENT DISCREPANCY =          -0.00






         TIME SUMMARY AT END OF TIME STEP   82 IN STRESS PERIOD    3
                    SECONDS     MINUTES      HOURS       DAYS        YEARS
                    -----------------------------------------------------------
   TIME STEP LENGTH  86400.      1440.0      24.000      1.0000     2.73785E-03
 STRESS PERIOD TIME 7.08480E+06 1.18080E+05  1968.0      82.000     0.22450    
         TOTAL TIME 1.58112E+07 2.63520E+05  4392.0      183.00     0.50103    
1

 SOLVING FOR HEAD 
     1 ITERATIONS FOR TIME STEP  83 IN STRESS PERIOD    3

 OUTPUT CONTROL FOR STRESS PERIOD    3   TIME STEP   83
    SAVE HEAD FOR ALL LAYERS
    SAVE DRAWDOWN FOR ALL LAYERS
    SAVE BUDGET
    PRINT HEAD FOR ALL LAYERS
    PRINT BUDGET
 UBDSV1 SAVING "         STORAGE" ON UNIT  53 AT TIME STEP 83, STRESS PERIOD   3
 UBDSV2 SAVING "   CONSTANT HEAD" ON UNIT  53 AT TIME STEP 83, STRESS PERIOD   3
 UBDSV1 SAVING "FLOW RIGHT FACE " ON UNIT  53 AT TIME STEP 83, STRESS PERIOD   3
 UBDSV1 SAVING "FLOW FRONT FACE " ON UNIT  53 AT TIME STEP 83, STRESS PERIOD   3
1
              HEAD IN LAYER   1 AT END OF TIME STEP  83 IN STRESS PERIOD    3
  ---------------------------------------------------------------------------

            1           2           3           4           5           6           7           8           9          10
 ........................................................................................................................
   1    9.990       8.786       7.591       6.418       5.277       4.177       3.111       2.068       1.036      1.0259E-02
   2    9.990       8.776       7.571       6.385       5.236       4.144       3.089       2.055       1.031      1.0205E-02
   3    9.990       8.759       7.530       6.314       5.140       4.072       3.047       2.033       1.021      1.0114E-02
   4    9.990       8.738       7.477       6.201       4.936       3.958       2.992       2.009       1.012      1.0022E-02
   5    9.989       8.728       7.441       6.075       4.447       3.832       2.955       1.997       1.009      9.9865E-03
   6    9.990       8.742       7.484       6.209       4.946       3.968       3.000       2.014       1.015      1.0053E-02
   7    9.990       8.766       7.544       6.332       5.160       4.092       3.064       2.045       1.028      1.0179E-02
   8    9.990       8.788       7.593       6.415       5.271       4.177       3.118       2.075       1.041      1.0310E-02
   9    9.990       8.804       7.626       6.465       5.330       4.228       3.154       2.097       1.051      1.0410E-02
  10    9.990       8.812       7.642       6.488       5.357       4.252       3.171       2.109       1.057      1.0463E-02

 HEAD WILL BE SAVED ON UNIT   51 AT END OF TIME STEP   83, STRESS PERIOD    3

 DRAWDOWN WILL BE SAVED ON UNIT   52 AT END OF TIME STEP   83, STRESS PERIOD    3
1
  VOLUMETRIC BUDGET FOR ENTIRE MODEL AT END OF TIME STEP   83, STRESS PERIOD   3
  ------------------------------------------------------------------------------

     CUMULATIVE VOLUMES      L**3       RATES FOR THIS TIME STEP      L**3/T
     ------------------                 ------------------------

           IN:                                      IN:
           ---                                      ---
             STORAGE =       25999.4883               STORAGE =       3.6834E-02
       CONSTANT HEAD =           0.0000         CONSTANT HEAD =           0.0000
               WELLS =           0.0000                 WELLS =           0.0000
     HEAD DEP BOUNDS =       98104.3984       HEAD DEP BOUNDS =         609.9496

            TOTAL IN =      124103.8906              TOTAL IN =         609.9864

          OUT:                                     OUT:
          ----                                     ----
             STORAGE =           0.0000               STORAGE =           0.0000
       CONSTANT HEAD =           0.0000         CONSTANT HEAD =           0.0000
               WELLS =        8300.0000                 WELLS =         100.0000
     HEAD DEP BOUNDS =      115840.6250       HEAD DEP BOUNDS =         510.0055

           TOTAL OUT =      124140.6250             TOTAL OUT =         610.0055

            IN - OUT =         -36.7344              IN - OUT =      -1.9104E-02

 PERCENT DISCREPANCY =          -0.03     PERCENT DISCREPANCY =          -0.00






         TIME SUMMARY AT END OF TIME STEP   83 IN STRESS PERIOD    3
                    SECONDS     MINUTES      HOURS       DAYS        YEARS
                    -----------------------------------------------------------
   TIME STEP LENGTH  86400.      1440.0      24.000      1.0000     2.73785E-03
 STRESS PERIOD TIME 7.17120E+06 1.19520E+05  1992.0      83.000     0.22724    
         TOTAL TIME 1.58976E+07 2.64960E+05  4416.0      184.00     0.50376    
1

 SOLVING FOR HEAD 
     1 ITERATIONS FOR TIME STEP  84 IN STRESS PERIOD    3

 OUTPUT CONTROL FOR STRESS PERIOD    3   TIME STEP   84
    SAVE HEAD FOR ALL LAYERS
    SAVE DRAWDOWN FOR ALL LAYERS
    SAVE BUDGET
    PRINT HEAD FOR ALL LAYERS
    PRINT BUDGET
 UBDSV1 SAVING "         STORAGE" ON UNIT  53 AT TIME STEP 84, STRESS PERIOD   3
 UBDSV2 SAVING "   CONSTANT HEAD" ON UNIT  53 AT TIME STEP 84, STRESS PERIOD   3
 UBDSV1 SAVING "FLOW RIGHT FACE " ON UNIT  53 AT TIME STEP 84, STRESS PERIOD   3
 UBDSV1 SAVING "FLOW FRONT FACE " ON UNIT  53 AT TIME STEP 84, STRESS PERIOD   3
1
              HEAD IN LAYER   1 AT END OF TIME STEP  84 IN STRESS PERIOD    3
  ---------------------------------------------------------------------------

            1           2           3           4           5           6           7           8           9          10
 ........................................................................................................................
   1    9.990       8.786       7.591       6.418       5.277       4.177       3.111       2.068       1.036      1.0259E-02
   2    9.990       8.776       7.571       6.385       5.236       4.144       3.089       2.055       1.031      1.0205E-02
   3    9.990       8.759       7.530       6.314       5.140       4.072       3.047       2.033       1.021      1.0114E-02
   4    9.990       8.738       7.477       6.201       4.936       3.958       2.992       2.008       1.012      1.0022E-02
   5    9.989       8.728       7.441       6.074       4.447       3.832       2.955       1.997       1.009      9.9865E-03
   6    9.990       8.742       7.484       6.209       4.946       3.968       3.000       2.014       1.015      1.0053E-02
   7    9.990       8.766       7.544       6.332       5.160       4.092       3.064       2.045       1.028      1.0179E-02
   8    9.990       8.788       7.593       6.415       5.271       4.177       3.118       2.075       1.041      1.0310E-02
   9    9.990       8.804       7.626       6.465       5.330       4.228       3.154       2.097       1.051      1.0410E-02
  10    9.990       8.812       7.642       6.488       5.357       4.252       3.171       2.109       1.057      1.0463E-02

 HEAD WILL BE SAVED ON UNIT   51 AT END OF TIME STEP   84, STRESS PERIOD    3

 DRAWDOWN WILL BE SAVED ON UNIT   52 AT END OF TIME STEP   84, STRESS PERIOD    3
1
  VOLUMETRIC BUDGET FOR ENTIRE MODEL AT END OF TIME STEP   84, STRESS PERIOD   3
  ------------------------------------------------------------------------------

     CUMULATIVE VOLUMES      L**3       RATES FOR THIS TIME STEP      L**3/T
     ------------------                 ------------------------

           IN:                                      IN:
           ---                                      ---
             STORAGE =       25999.5215               STORAGE =       3.3792E-02
       CONSTANT HEAD =           0.0000         CONSTANT HEAD =           0.0000
               WELLS =           0.0000                 WELLS =           0.0000
     HEAD DEP BOUNDS =       98714.3516       HEAD DEP BOUNDS =         609.9516

            TOTAL IN =      124713.8750              TOTAL IN =         609.9854

          OUT:                                     OUT:
          ----                                     ----
             STORAGE =           0.0000               STORAGE =           0.0000
       CONSTANT HEAD =           0.0000         CONSTANT HEAD =           0.0000
               WELLS =        8400.0000                 WELLS =         100.0000
     HEAD DEP BOUNDS =      116350.6250       HEAD DEP BOUNDS =         510.0034

           TOTAL OUT =      124750.6250             TOTAL OUT =         610.0034

            IN - OUT =         -36.7500              IN - OUT =      -1.8005E-02

 PERCENT DISCREPANCY =          -0.03     PERCENT DISCREPANCY =          -0.00






         TIME SUMMARY AT END OF TIME STEP   84 IN STRESS PERIOD    3
                    SECONDS     MINUTES      HOURS       DAYS        YEARS
                    -----------------------------------------------------------
   TIME STEP LENGTH  86400.      1440.0      24.000      1.0000     2.73785E-03
 STRESS PERIOD TIME 7.25760E+06 1.20960E+05  2016.0      84.000     0.22998    
         TOTAL TIME 1.59840E+07 2.66400E+05  4440.0      185.00     0.50650    
1

 SOLVING FOR HEAD 
     1 ITERATIONS FOR TIME STEP  85 IN STRESS PERIOD    3

 OUTPUT CONTROL FOR STRESS PERIOD    3   TIME STEP   85
    SAVE HEAD FOR ALL LAYERS
    SAVE DRAWDOWN FOR ALL LAYERS
    SAVE BUDGET
    PRINT HEAD FOR ALL LAYERS
    PRINT BUDGET
 UBDSV1 SAVING "         STORAGE" ON UNIT  53 AT TIME STEP 85, STRESS PERIOD   3
 UBDSV2 SAVING "   CONSTANT HEAD" ON UNIT  53 AT TIME STEP 85, STRESS PERIOD   3
 UBDSV1 SAVING "FLOW RIGHT FACE " ON UNIT  53 AT TIME STEP 85, STRESS PERIOD   3
 UBDSV1 SAVING "FLOW FRONT FACE " ON UNIT  53 AT TIME STEP 85, STRESS PERIOD   3
1
              HEAD IN LAYER   1 AT END OF TIME STEP  85 IN STRESS PERIOD    3
  ---------------------------------------------------------------------------

            1           2           3           4           5           6           7           8           9          10
 ........................................................................................................................
   1    9.990       8.786       7.591       6.418       5.277       4.177       3.111       2.068       1.036      1.0259E-02
   2    9.990       8.776       7.571       6.385       5.236       4.144       3.089       2.055       1.031      1.0205E-02
   3    9.990       8.759       7.530       6.314       5.140       4.072       3.047       2.033       1.021      1.0114E-02
   4    9.990       8.738       7.477       6.201       4.936       3.958       2.992       2.008       1.012      1.0022E-02
   5    9.989       8.728       7.441       6.074       4.447       3.832       2.955       1.997       1.009      9.9865E-03
   6    9.990       8.742       7.484       6.209       4.946       3.968       3.000       2.014       1.015      1.0053E-02
   7    9.990       8.766       7.544       6.332       5.160       4.092       3.064       2.045       1.028      1.0179E-02
   8    9.990       8.788       7.593       6.415       5.271       4.177       3.118       2.075       1.041      1.0310E-02
   9    9.990       8.804       7.626       6.465       5.330       4.228       3.154       2.097       1.051      1.0410E-02
  10    9.990       8.812       7.642       6.488       5.357       4.252       3.171       2.109       1.057      1.0463E-02

 HEAD WILL BE SAVED ON UNIT   51 AT END OF TIME STEP   85, STRESS PERIOD    3

 DRAWDOWN WILL BE SAVED ON UNIT   52 AT END OF TIME STEP   85, STRESS PERIOD    3
1
  VOLUMETRIC BUDGET FOR ENTIRE MODEL AT END OF TIME STEP   85, STRESS PERIOD   3
  ------------------------------------------------------------------------------

     CUMULATIVE VOLUMES      L**3       RATES FOR THIS TIME STEP      L**3/T
     ------------------                 ------------------------

           IN:                                      IN:
           ---                                      ---
             STORAGE =       25999.5527               STORAGE =       3.1124E-02
       CONSTANT HEAD =           0.0000         CONSTANT HEAD =           0.0000
               WELLS =           0.0000                 WELLS =           0.0000
     HEAD DEP BOUNDS =       99324.3047       HEAD DEP BOUNDS =         609.9534

            TOTAL IN =      125323.8594              TOTAL IN =         609.9846

          OUT:                                     OUT:
          ----                                     ----
             STORAGE =           0.0000               STORAGE =           0.0000
       CONSTANT HEAD =           0.0000         CONSTANT HEAD =           0.0000
               WELLS =        8500.0000                 WELLS =         100.0000
     HEAD DEP BOUNDS =      116860.6250       HEAD DEP BOUNDS =         510.0016

           TOTAL OUT =      125360.6250             TOTAL OUT =         610.0016

            IN - OUT =         -36.7656              IN - OUT =      -1.7029E-02

 PERCENT DISCREPANCY =          -0.03     PERCENT DISCREPANCY =          -0.00






         TIME SUMMARY AT END OF TIME STEP   85 IN STRESS PERIOD    3
                    SECONDS     MINUTES      HOURS       DAYS        YEARS
                    -----------------------------------------------------------
   TIME STEP LENGTH  86400.      1440.0      24.000      1.0000     2.73785E-03
 STRESS PERIOD TIME 7.34400E+06 1.22400E+05  2040.0      85.000     0.23272    
         TOTAL TIME 1.60704E+07 2.67840E+05  4464.0      186.00     0.50924    
1

 SOLVING FOR HEAD 
     1 ITERATIONS FOR TIME STEP  86 IN STRESS PERIOD    3

 OUTPUT CONTROL FOR STRESS PERIOD    3   TIME STEP   86
    SAVE HEAD FOR ALL LAYERS
    SAVE DRAWDOWN FOR ALL LAYERS
    SAVE BUDGET
    PRINT HEAD FOR ALL LAYERS
    PRINT BUDGET
 UBDSV1 SAVING "         STORAGE" ON UNIT  53 AT TIME STEP 86, STRESS PERIOD   3
 UBDSV2 SAVING "   CONSTANT HEAD" ON UNIT  53 AT TIME STEP 86, STRESS PERIOD   3
 UBDSV1 SAVING "FLOW RIGHT FACE " ON UNIT  53 AT TIME STEP 86, STRESS PERIOD   3
 UBDSV1 SAVING "FLOW FRONT FACE " ON UNIT  53 AT TIME STEP 86, STRESS PERIOD   3
1
              HEAD IN LAYER   1 AT END OF TIME STEP  86 IN STRESS PERIOD    3
  ---------------------------------------------------------------------------

            1           2           3           4           5           6           7           8           9          10
 ........................................................................................................................
   1    9.990       8.786       7.591       6.418       5.277       4.177       3.111       2.068       1.036      1.0259E-02
   2    9.990       8.776       7.571       6.385       5.236       4.144       3.089       2.055       1.031      1.0205E-02
   3    9.990       8.759       7.530       6.314       5.140       4.072       3.047       2.033       1.021      1.0114E-02
   4    9.990       8.738       7.477       6.200       4.936       3.958       2.992       2.008       1.012      1.0022E-02
   5    9.989       8.728       7.441       6.074       4.447       3.832       2.955       1.997       1.009      9.9864E-03
   6    9.990       8.742       7.484       6.209       4.946       3.968       3.000       2.014       1.015      1.0053E-02
   7    9.990       8.766       7.544       6.332       5.160       4.092       3.064       2.045       1.028      1.0179E-02
   8    9.990       8.788       7.593       6.415       5.271       4.177       3.118       2.075       1.041      1.0310E-02
   9    9.990       8.804       7.626       6.465       5.330       4.228       3.154       2.097       1.051      1.0410E-02
  10    9.990       8.812       7.642       6.488       5.357       4.252       3.171       2.109       1.057      1.0463E-02

 HEAD WILL BE SAVED ON UNIT   51 AT END OF TIME STEP   86, STRESS PERIOD    3

 DRAWDOWN WILL BE SAVED ON UNIT   52 AT END OF TIME STEP   86, STRESS PERIOD    3
1
  VOLUMETRIC BUDGET FOR ENTIRE MODEL AT END OF TIME STEP   86, STRESS PERIOD   3
  ------------------------------------------------------------------------------

     CUMULATIVE VOLUMES      L**3       RATES FOR THIS TIME STEP      L**3/T
     ------------------                 ------------------------

           IN:                                      IN:
           ---                                      ---
             STORAGE =       25999.5820               STORAGE =       2.8658E-02
       CONSTANT HEAD =           0.0000         CONSTANT HEAD =           0.0000
               WELLS =           0.0000                 WELLS =           0.0000
     HEAD DEP BOUNDS =       99934.2578       HEAD DEP BOUNDS =         609.9551

            TOTAL IN =      125933.8438              TOTAL IN =         609.9838

          OUT:                                     OUT:
          ----                                     ----
             STORAGE =           0.0000               STORAGE =           0.0000
       CONSTANT HEAD =           0.0000         CONSTANT HEAD =           0.0000
               WELLS =        8600.0000                 WELLS =         100.0000
     HEAD DEP BOUNDS =      117370.6250       HEAD DEP BOUNDS =         509.9998

           TOTAL OUT =      125970.6250             TOTAL OUT =         609.9998

            IN - OUT =         -36.7812              IN - OUT =      -1.5930E-02

 PERCENT DISCREPANCY =          -0.03     PERCENT DISCREPANCY =          -0.00






         TIME SUMMARY AT END OF TIME STEP   86 IN STRESS PERIOD    3
                    SECONDS     MINUTES      HOURS       DAYS        YEARS
                    -----------------------------------------------------------
   TIME STEP LENGTH  86400.      1440.0      24.000      1.0000     2.73785E-03
 STRESS PERIOD TIME 7.43040E+06 1.23840E+05  2064.0      86.000     0.23546    
         TOTAL TIME 1.61568E+07 2.69280E+05  4488.0      187.00     0.51198    
1

 SOLVING FOR HEAD 
     1 ITERATIONS FOR TIME STEP  87 IN STRESS PERIOD    3

 OUTPUT CONTROL FOR STRESS PERIOD    3   TIME STEP   87
    SAVE HEAD FOR ALL LAYERS
    SAVE DRAWDOWN FOR ALL LAYERS
    SAVE BUDGET
    PRINT HEAD FOR ALL LAYERS
    PRINT BUDGET
 UBDSV1 SAVING "         STORAGE" ON UNIT  53 AT TIME STEP 87, STRESS PERIOD   3
 UBDSV2 SAVING "   CONSTANT HEAD" ON UNIT  53 AT TIME STEP 87, STRESS PERIOD   3
 UBDSV1 SAVING "FLOW RIGHT FACE " ON UNIT  53 AT TIME STEP 87, STRESS PERIOD   3
 UBDSV1 SAVING "FLOW FRONT FACE " ON UNIT  53 AT TIME STEP 87, STRESS PERIOD   3
1
              HEAD IN LAYER   1 AT END OF TIME STEP  87 IN STRESS PERIOD    3
  ---------------------------------------------------------------------------

            1           2           3           4           5           6           7           8           9          10
 ........................................................................................................................
   1    9.990       8.786       7.591       6.418       5.277       4.177       3.111       2.068       1.036      1.0259E-02
   2    9.990       8.776       7.571       6.385       5.236       4.144       3.089       2.055       1.031      1.0205E-02
   3    9.990       8.759       7.530       6.314       5.140       4.072       3.047       2.033       1.021      1.0114E-02
   4    9.990       8.738       7.477       6.200       4.936       3.958       2.992       2.008       1.012      1.0022E-02
   5    9.989       8.728       7.441       6.074       4.447       3.832       2.955       1.997       1.009      9.9864E-03
   6    9.990       8.742       7.484       6.209       4.946       3.968       3.000       2.014       1.015      1.0053E-02
   7    9.990       8.766       7.544       6.332       5.160       4.092       3.064       2.045       1.028      1.0179E-02
   8    9.990       8.788       7.593       6.415       5.271       4.177       3.118       2.075       1.041      1.0310E-02
   9    9.990       8.804       7.626       6.465       5.330       4.228       3.154       2.097       1.051      1.0410E-02
  10    9.990       8.812       7.642       6.488       5.357       4.252       3.171       2.109       1.057      1.0463E-02

 HEAD WILL BE SAVED ON UNIT   51 AT END OF TIME STEP   87, STRESS PERIOD    3

 DRAWDOWN WILL BE SAVED ON UNIT   52 AT END OF TIME STEP   87, STRESS PERIOD    3
1
  VOLUMETRIC BUDGET FOR ENTIRE MODEL AT END OF TIME STEP   87, STRESS PERIOD   3
  ------------------------------------------------------------------------------

     CUMULATIVE VOLUMES      L**3       RATES FOR THIS TIME STEP      L**3/T
     ------------------                 ------------------------

           IN:                                      IN:
           ---                                      ---
             STORAGE =       25999.6074               STORAGE =       2.6364E-02
       CONSTANT HEAD =           0.0000         CONSTANT HEAD =           0.0000
               WELLS =           0.0000                 WELLS =           0.0000
     HEAD DEP BOUNDS =      100544.2109       HEAD DEP BOUNDS =         609.9567

            TOTAL IN =      126543.8203              TOTAL IN =         609.9830

          OUT:                                     OUT:
          ----                                     ----
             STORAGE =           0.0000               STORAGE =           0.0000
       CONSTANT HEAD =           0.0000         CONSTANT HEAD =           0.0000
               WELLS =        8700.0000                 WELLS =         100.0000
     HEAD DEP BOUNDS =      117880.6250       HEAD DEP BOUNDS =         509.9982

           TOTAL OUT =      126580.6250             TOTAL OUT =         609.9982

            IN - OUT =         -36.8047              IN - OUT =      -1.5137E-02

 PERCENT DISCREPANCY =          -0.03     PERCENT DISCREPANCY =          -0.00






         TIME SUMMARY AT END OF TIME STEP   87 IN STRESS PERIOD    3
                    SECONDS     MINUTES      HOURS       DAYS        YEARS
                    -----------------------------------------------------------
   TIME STEP LENGTH  86400.      1440.0      24.000      1.0000     2.73785E-03
 STRESS PERIOD TIME 7.51680E+06 1.25280E+05  2088.0      87.000     0.23819    
         TOTAL TIME 1.62432E+07 2.70720E+05  4512.0      188.00     0.51472    
1

 SOLVING FOR HEAD 
     1 ITERATIONS FOR TIME STEP  88 IN STRESS PERIOD    3

 OUTPUT CONTROL FOR STRESS PERIOD    3   TIME STEP   88
    SAVE HEAD FOR ALL LAYERS
    SAVE DRAWDOWN FOR ALL LAYERS
    SAVE BUDGET
    PRINT HEAD FOR ALL LAYERS
    PRINT BUDGET
 UBDSV1 SAVING "         STORAGE" ON UNIT  53 AT TIME STEP 88, STRESS PERIOD   3
 UBDSV2 SAVING "   CONSTANT HEAD" ON UNIT  53 AT TIME STEP 88, STRESS PERIOD   3
 UBDSV1 SAVING "FLOW RIGHT FACE " ON UNIT  53 AT TIME STEP 88, STRESS PERIOD   3
 UBDSV1 SAVING "FLOW FRONT FACE " ON UNIT  53 AT TIME STEP 88, STRESS PERIOD   3
1
              HEAD IN LAYER   1 AT END OF TIME STEP  88 IN STRESS PERIOD    3
  ---------------------------------------------------------------------------

            1           2           3           4           5           6           7           8           9          10
 ........................................................................................................................
   1    9.990       8.786       7.591       6.418       5.277       4.177       3.111       2.068       1.036      1.0259E-02
   2    9.990       8.776       7.571       6.385       5.236       4.144       3.089       2.055       1.031      1.0205E-02
   3    9.990       8.759       7.530       6.314       5.140       4.072       3.047       2.033       1.021      1.0114E-02
   4    9.990       8.738       7.477       6.200       4.936       3.958       2.992       2.008       1.012      1.0022E-02
   5    9.989       8.728       7.441       6.074       4.447       3.832       2.955       1.997       1.009      9.9864E-03
   6    9.990       8.742       7.484       6.209       4.946       3.968       3.000       2.014       1.015      1.0053E-02
   7    9.990       8.766       7.544       6.332       5.160       4.092       3.064       2.045       1.028      1.0179E-02
   8    9.990       8.788       7.593       6.415       5.271       4.177       3.118       2.075       1.041      1.0310E-02
   9    9.990       8.804       7.626       6.465       5.330       4.228       3.154       2.097       1.051      1.0410E-02
  10    9.990       8.812       7.642       6.488       5.357       4.252       3.171       2.109       1.057      1.0463E-02

 HEAD WILL BE SAVED ON UNIT   51 AT END OF TIME STEP   88, STRESS PERIOD    3

 DRAWDOWN WILL BE SAVED ON UNIT   52 AT END OF TIME STEP   88, STRESS PERIOD    3
1
  VOLUMETRIC BUDGET FOR ENTIRE MODEL AT END OF TIME STEP   88, STRESS PERIOD   3
  ------------------------------------------------------------------------------

     CUMULATIVE VOLUMES      L**3       RATES FOR THIS TIME STEP      L**3/T
     ------------------                 ------------------------

           IN:                                      IN:
           ---                                      ---
             STORAGE =       25999.6309               STORAGE =       2.4181E-02
       CONSTANT HEAD =           0.0000         CONSTANT HEAD =           0.0000
               WELLS =           0.0000                 WELLS =           0.0000
     HEAD DEP BOUNDS =      101154.1719       HEAD DEP BOUNDS =         609.9581

            TOTAL IN =      127153.8047              TOTAL IN =         609.9823

          OUT:                                     OUT:
          ----                                     ----
             STORAGE =           0.0000               STORAGE =           0.0000
       CONSTANT HEAD =           0.0000         CONSTANT HEAD =           0.0000
               WELLS =        8800.0000                 WELLS =         100.0000
     HEAD DEP BOUNDS =      118390.6250       HEAD DEP BOUNDS =         509.9967

           TOTAL OUT =      127190.6250             TOTAL OUT =         609.9967

            IN - OUT =         -36.8203              IN - OUT =      -1.4404E-02

 PERCENT DISCREPANCY =          -0.03     PERCENT DISCREPANCY =          -0.00






         TIME SUMMARY AT END OF TIME STEP   88 IN STRESS PERIOD    3
                    SECONDS     MINUTES      HOURS       DAYS        YEARS
                    -----------------------------------------------------------
   TIME STEP LENGTH  86400.      1440.0      24.000      1.0000     2.73785E-03
 STRESS PERIOD TIME 7.60320E+06 1.26720E+05  2112.0      88.000     0.24093    
         TOTAL TIME 1.63296E+07 2.72160E+05  4536.0      189.00     0.51745    
1

 SOLVING FOR HEAD 
     1 ITERATIONS FOR TIME STEP  89 IN STRESS PERIOD    3

 OUTPUT CONTROL FOR STRESS PERIOD    3   TIME STEP   89
    SAVE HEAD FOR ALL LAYERS
    SAVE DRAWDOWN FOR ALL LAYERS
    SAVE BUDGET
    PRINT HEAD FOR ALL LAYERS
    PRINT BUDGET
 UBDSV1 SAVING "         STORAGE" ON UNIT  53 AT TIME STEP 89, STRESS PERIOD   3
 UBDSV2 SAVING "   CONSTANT HEAD" ON UNIT  53 AT TIME STEP 89, STRESS PERIOD   3
 UBDSV1 SAVING "FLOW RIGHT FACE " ON UNIT  53 AT TIME STEP 89, STRESS PERIOD   3
 UBDSV1 SAVING "FLOW FRONT FACE " ON UNIT  53 AT TIME STEP 89, STRESS PERIOD   3
1
              HEAD IN LAYER   1 AT END OF TIME STEP  89 IN STRESS PERIOD    3
  ---------------------------------------------------------------------------

            1           2           3           4           5           6           7           8           9          10
 ........................................................................................................................
   1    9.990       8.786       7.591       6.418       5.277       4.177       3.111       2.068       1.036      1.0259E-02
   2    9.990       8.776       7.571       6.385       5.236       4.144       3.089       2.055       1.031      1.0205E-02
   3    9.990       8.759       7.530       6.314       5.140       4.072       3.047       2.033       1.021      1.0114E-02
   4    9.990       8.738       7.477       6.200       4.936       3.958       2.992       2.008       1.012      1.0022E-02
   5    9.989       8.728       7.441       6.074       4.447       3.832       2.955       1.997       1.009      9.9863E-03
   6    9.990       8.742       7.484       6.209       4.946       3.968       3.000       2.014       1.015      1.0053E-02
   7    9.990       8.766       7.544       6.332       5.160       4.092       3.064       2.045       1.028      1.0179E-02
   8    9.990       8.788       7.593       6.415       5.271       4.177       3.118       2.075       1.041      1.0310E-02
   9    9.990       8.804       7.626       6.465       5.330       4.228       3.154       2.097       1.051      1.0410E-02
  10    9.990       8.812       7.642       6.488       5.357       4.252       3.171       2.109       1.057      1.0463E-02

 HEAD WILL BE SAVED ON UNIT   51 AT END OF TIME STEP   89, STRESS PERIOD    3

 DRAWDOWN WILL BE SAVED ON UNIT   52 AT END OF TIME STEP   89, STRESS PERIOD    3
1
  VOLUMETRIC BUDGET FOR ENTIRE MODEL AT END OF TIME STEP   89, STRESS PERIOD   3
  ------------------------------------------------------------------------------

     CUMULATIVE VOLUMES      L**3       RATES FOR THIS TIME STEP      L**3/T
     ------------------                 ------------------------

           IN:                                      IN:
           ---                                      ---
             STORAGE =       25999.6523               STORAGE =       2.2337E-02
       CONSTANT HEAD =           0.0000         CONSTANT HEAD =           0.0000
               WELLS =           0.0000                 WELLS =           0.0000
     HEAD DEP BOUNDS =      101764.1328       HEAD DEP BOUNDS =         609.9595

            TOTAL IN =      127763.7812              TOTAL IN =         609.9818

          OUT:                                     OUT:
          ----                                     ----
             STORAGE =           0.0000               STORAGE =           0.0000
       CONSTANT HEAD =           0.0000         CONSTANT HEAD =           0.0000
               WELLS =        8900.0000                 WELLS =         100.0000
     HEAD DEP BOUNDS =      118900.6172       HEAD DEP BOUNDS =         509.9953

           TOTAL OUT =      127800.6172             TOTAL OUT =         609.9954

            IN - OUT =         -36.8359              IN - OUT =      -1.3550E-02

 PERCENT DISCREPANCY =          -0.03     PERCENT DISCREPANCY =          -0.00






         TIME SUMMARY AT END OF TIME STEP   89 IN STRESS PERIOD    3
                    SECONDS     MINUTES      HOURS       DAYS        YEARS
                    -----------------------------------------------------------
   TIME STEP LENGTH  86400.      1440.0      24.000      1.0000     2.73785E-03
 STRESS PERIOD TIME 7.68960E+06 1.28160E+05  2136.0      89.000     0.24367    
         TOTAL TIME 1.64160E+07 2.73600E+05  4560.0      190.00     0.52019    
1

 SOLVING FOR HEAD 
     1 ITERATIONS FOR TIME STEP  90 IN STRESS PERIOD    3

 OUTPUT CONTROL FOR STRESS PERIOD    3   TIME STEP   90
    SAVE HEAD FOR ALL LAYERS
    SAVE DRAWDOWN FOR ALL LAYERS
    SAVE BUDGET
    PRINT HEAD FOR ALL LAYERS
    PRINT BUDGET
 UBDSV1 SAVING "         STORAGE" ON UNIT  53 AT TIME STEP 90, STRESS PERIOD   3
 UBDSV2 SAVING "   CONSTANT HEAD" ON UNIT  53 AT TIME STEP 90, STRESS PERIOD   3
 UBDSV1 SAVING "FLOW RIGHT FACE " ON UNIT  53 AT TIME STEP 90, STRESS PERIOD   3
 UBDSV1 SAVING "FLOW FRONT FACE " ON UNIT  53 AT TIME STEP 90, STRESS PERIOD   3
1
              HEAD IN LAYER   1 AT END OF TIME STEP  90 IN STRESS PERIOD    3
  ---------------------------------------------------------------------------

            1           2           3           4           5           6           7           8           9          10
 ........................................................................................................................
   1    9.990       8.786       7.591       6.418       5.277       4.177       3.111       2.068       1.036      1.0259E-02
   2    9.990       8.776       7.571       6.385       5.236       4.144       3.089       2.055       1.031      1.0205E-02
   3    9.990       8.759       7.530       6.314       5.140       4.072       3.047       2.033       1.021      1.0114E-02
   4    9.990       8.738       7.477       6.200       4.936       3.958       2.992       2.008       1.012      1.0022E-02
   5    9.989       8.728       7.441       6.074       4.447       3.832       2.955       1.997       1.009      9.9863E-03
   6    9.990       8.742       7.484       6.209       4.946       3.968       3.000       2.014       1.015      1.0053E-02
   7    9.990       8.766       7.544       6.332       5.160       4.092       3.064       2.045       1.028      1.0179E-02
   8    9.990       8.788       7.593       6.415       5.271       4.177       3.118       2.075       1.041      1.0310E-02
   9    9.990       8.804       7.626       6.465       5.330       4.228       3.154       2.097       1.051      1.0410E-02
  10    9.990       8.812       7.642       6.488       5.357       4.252       3.171       2.108       1.057      1.0463E-02

 HEAD WILL BE SAVED ON UNIT   51 AT END OF TIME STEP   90, STRESS PERIOD    3

 DRAWDOWN WILL BE SAVED ON UNIT   52 AT END OF TIME STEP   90, STRESS PERIOD    3
1
  VOLUMETRIC BUDGET FOR ENTIRE MODEL AT END OF TIME STEP   90, STRESS PERIOD   3
  ------------------------------------------------------------------------------

     CUMULATIVE VOLUMES      L**3       RATES FOR THIS TIME STEP      L**3/T
     ------------------                 ------------------------

           IN:                                      IN:
           ---                                      ---
             STORAGE =       25999.6738               STORAGE =       2.0631E-02
       CONSTANT HEAD =           0.0000         CONSTANT HEAD =           0.0000
               WELLS =           0.0000                 WELLS =           0.0000
     HEAD DEP BOUNDS =      102374.0938       HEAD DEP BOUNDS =         609.9607

            TOTAL IN =      128373.7656              TOTAL IN =         609.9813

          OUT:                                     OUT:
          ----                                     ----
             STORAGE =           0.0000               STORAGE =           0.0000
       CONSTANT HEAD =           0.0000         CONSTANT HEAD =           0.0000
               WELLS =        9000.0000                 WELLS =         100.0000
     HEAD DEP BOUNDS =      119410.6094       HEAD DEP BOUNDS =         509.9941

           TOTAL OUT =      128410.6094             TOTAL OUT =         609.9941

            IN - OUT =         -36.8438              IN - OUT =      -1.2756E-02

 PERCENT DISCREPANCY =          -0.03     PERCENT DISCREPANCY =          -0.00






         TIME SUMMARY AT END OF TIME STEP   90 IN STRESS PERIOD    3
                    SECONDS     MINUTES      HOURS       DAYS        YEARS
                    -----------------------------------------------------------
   TIME STEP LENGTH  86400.      1440.0      24.000      1.0000     2.73785E-03
 STRESS PERIOD TIME 7.77600E+06 1.29600E+05  2160.0      90.000     0.24641    
         TOTAL TIME 1.65024E+07 2.75040E+05  4584.0      191.00     0.52293    
1

 SOLVING FOR HEAD 
     1 ITERATIONS FOR TIME STEP  91 IN STRESS PERIOD    3

 OUTPUT CONTROL FOR STRESS PERIOD    3   TIME STEP   91
    SAVE HEAD FOR ALL LAYERS
    SAVE DRAWDOWN FOR ALL LAYERS
    SAVE BUDGET
    PRINT HEAD FOR ALL LAYERS
    PRINT BUDGET
 UBDSV1 SAVING "         STORAGE" ON UNIT  53 AT TIME STEP 91, STRESS PERIOD   3
 UBDSV2 SAVING "   CONSTANT HEAD" ON UNIT  53 AT TIME STEP 91, STRESS PERIOD   3
 UBDSV1 SAVING "FLOW RIGHT FACE " ON UNIT  53 AT TIME STEP 91, STRESS PERIOD   3
 UBDSV1 SAVING "FLOW FRONT FACE " ON UNIT  53 AT TIME STEP 91, STRESS PERIOD   3
1
              HEAD IN LAYER   1 AT END OF TIME STEP  91 IN STRESS PERIOD    3
  ---------------------------------------------------------------------------

            1           2           3           4           5           6           7           8           9          10
 ........................................................................................................................
   1    9.990       8.786       7.591       6.418       5.277       4.177       3.111       2.068       1.036      1.0259E-02
   2    9.990       8.776       7.571       6.385       5.236       4.144       3.089       2.055       1.031      1.0205E-02
   3    9.990       8.759       7.530       6.314       5.140       4.072       3.047       2.033       1.021      1.0114E-02
   4    9.990       8.738       7.477       6.200       4.936       3.958       2.992       2.008       1.012      1.0021E-02
   5    9.989       8.728       7.441       6.074       4.447       3.832       2.955       1.997       1.009      9.9863E-03
   6    9.990       8.742       7.484       6.209       4.946       3.968       3.000       2.014       1.015      1.0053E-02
   7    9.990       8.766       7.544       6.332       5.160       4.092       3.064       2.045       1.028      1.0179E-02
   8    9.990       8.788       7.593       6.415       5.271       4.177       3.118       2.075       1.041      1.0310E-02
   9    9.990       8.804       7.626       6.465       5.330       4.228       3.154       2.097       1.051      1.0410E-02
  10    9.990       8.812       7.642       6.488       5.357       4.252       3.171       2.108       1.057      1.0463E-02

 HEAD WILL BE SAVED ON UNIT   51 AT END OF TIME STEP   91, STRESS PERIOD    3

 DRAWDOWN WILL BE SAVED ON UNIT   52 AT END OF TIME STEP   91, STRESS PERIOD    3
1
  VOLUMETRIC BUDGET FOR ENTIRE MODEL AT END OF TIME STEP   91, STRESS PERIOD   3
  ------------------------------------------------------------------------------

     CUMULATIVE VOLUMES      L**3       RATES FOR THIS TIME STEP      L**3/T
     ------------------                 ------------------------

           IN:                                      IN:
           ---                                      ---
             STORAGE =       25999.6934               STORAGE =       1.8849E-02
       CONSTANT HEAD =           0.0000         CONSTANT HEAD =           0.0000
               WELLS =           0.0000                 WELLS =           0.0000
     HEAD DEP BOUNDS =      102984.0547       HEAD DEP BOUNDS =         609.9618

            TOTAL IN =      128983.7500              TOTAL IN =         609.9807

          OUT:                                     OUT:
          ----                                     ----
             STORAGE =           0.0000               STORAGE =           0.0000
       CONSTANT HEAD =           0.0000         CONSTANT HEAD =           0.0000
               WELLS =        9100.0000                 WELLS =         100.0000
     HEAD DEP BOUNDS =      119920.6016       HEAD DEP BOUNDS =         509.9929

           TOTAL OUT =      129020.6016             TOTAL OUT =         609.9929

            IN - OUT =         -36.8516              IN - OUT =      -1.2268E-02

 PERCENT DISCREPANCY =          -0.03     PERCENT DISCREPANCY =          -0.00






         TIME SUMMARY AT END OF TIME STEP   91 IN STRESS PERIOD    3
                    SECONDS     MINUTES      HOURS       DAYS        YEARS
                    -----------------------------------------------------------
   TIME STEP LENGTH  86400.      1440.0      24.000      1.0000     2.73785E-03
 STRESS PERIOD TIME 7.86240E+06 1.31040E+05  2184.0      91.000     0.24914    
         TOTAL TIME 1.65888E+07 2.76480E+05  4608.0      192.00     0.52567    
1

 SOLVING FOR HEAD 
     1 ITERATIONS FOR TIME STEP  92 IN STRESS PERIOD    3

 OUTPUT CONTROL FOR STRESS PERIOD    3   TIME STEP   92
    SAVE HEAD FOR ALL LAYERS
    SAVE DRAWDOWN FOR ALL LAYERS
    SAVE BUDGET
    PRINT HEAD FOR ALL LAYERS
    PRINT BUDGET
 UBDSV1 SAVING "         STORAGE" ON UNIT  53 AT TIME STEP 92, STRESS PERIOD   3
 UBDSV2 SAVING "   CONSTANT HEAD" ON UNIT  53 AT TIME STEP 92, STRESS PERIOD   3
 UBDSV1 SAVING "FLOW RIGHT FACE " ON UNIT  53 AT TIME STEP 92, STRESS PERIOD   3
 UBDSV1 SAVING "FLOW FRONT FACE " ON UNIT  53 AT TIME STEP 92, STRESS PERIOD   3
1
              HEAD IN LAYER   1 AT END OF TIME STEP  92 IN STRESS PERIOD    3
  ---------------------------------------------------------------------------

            1           2           3           4           5           6           7           8           9          10
 ........................................................................................................................
   1    9.990       8.786       7.591       6.418       5.277       4.177       3.111       2.068       1.036      1.0259E-02
   2    9.990       8.776       7.571       6.385       5.236       4.144       3.089       2.055       1.031      1.0205E-02
   3    9.990       8.759       7.530       6.314       5.140       4.072       3.047       2.033       1.021      1.0113E-02
   4    9.990       8.738       7.477       6.200       4.936       3.958       2.992       2.008       1.012      1.0021E-02
   5    9.989       8.728       7.441       6.074       4.447       3.832       2.955       1.997       1.009      9.9863E-03
   6    9.990       8.742       7.484       6.209       4.946       3.968       3.000       2.014       1.015      1.0053E-02
   7    9.990       8.766       7.544       6.332       5.160       4.092       3.064       2.045       1.028      1.0179E-02
   8    9.990       8.788       7.593       6.415       5.271       4.177       3.118       2.075       1.041      1.0310E-02
   9    9.990       8.804       7.626       6.465       5.330       4.228       3.154       2.097       1.051      1.0410E-02
  10    9.990       8.812       7.642       6.488       5.357       4.252       3.171       2.108       1.057      1.0463E-02

 HEAD WILL BE SAVED ON UNIT   51 AT END OF TIME STEP   92, STRESS PERIOD    3

 DRAWDOWN WILL BE SAVED ON UNIT   52 AT END OF TIME STEP   92, STRESS PERIOD    3
1
  VOLUMETRIC BUDGET FOR ENTIRE MODEL AT END OF TIME STEP   92, STRESS PERIOD   3
  ------------------------------------------------------------------------------

     CUMULATIVE VOLUMES      L**3       RATES FOR THIS TIME STEP      L**3/T
     ------------------                 ------------------------

           IN:                                      IN:
           ---                                      ---
             STORAGE =       25999.7109               STORAGE =       1.7341E-02
       CONSTANT HEAD =           0.0000         CONSTANT HEAD =           0.0000
               WELLS =           0.0000                 WELLS =           0.0000
     HEAD DEP BOUNDS =      103594.0156       HEAD DEP BOUNDS =         609.9628

            TOTAL IN =      129593.7266              TOTAL IN =         609.9802

          OUT:                                     OUT:
          ----                                     ----
             STORAGE =           0.0000               STORAGE =           0.0000
       CONSTANT HEAD =           0.0000         CONSTANT HEAD =           0.0000
               WELLS =        9200.0000                 WELLS =         100.0000
     HEAD DEP BOUNDS =      120430.5938       HEAD DEP BOUNDS =         509.9919

           TOTAL OUT =      129630.5938             TOTAL OUT =         609.9918

            IN - OUT =         -36.8672              IN - OUT =      -1.1658E-02

 PERCENT DISCREPANCY =          -0.03     PERCENT DISCREPANCY =          -0.00






         TIME SUMMARY AT END OF TIME STEP   92 IN STRESS PERIOD    3
                    SECONDS     MINUTES      HOURS       DAYS        YEARS
                    -----------------------------------------------------------
   TIME STEP LENGTH  86400.      1440.0      24.000      1.0000     2.73785E-03
 STRESS PERIOD TIME 7.94880E+06 1.32480E+05  2208.0      92.000     0.25188    
         TOTAL TIME 1.66752E+07 2.77920E+05  4632.0      193.00     0.52841    
1

 SOLVING FOR HEAD 
     1 ITERATIONS FOR TIME STEP  93 IN STRESS PERIOD    3

 OUTPUT CONTROL FOR STRESS PERIOD    3   TIME STEP   93
    SAVE HEAD FOR ALL LAYERS
    SAVE DRAWDOWN FOR ALL LAYERS
    SAVE BUDGET
    PRINT HEAD FOR ALL LAYERS
    PRINT BUDGET
 UBDSV1 SAVING "         STORAGE" ON UNIT  53 AT TIME STEP 93, STRESS PERIOD   3
 UBDSV2 SAVING "   CONSTANT HEAD" ON UNIT  53 AT TIME STEP 93, STRESS PERIOD   3
 UBDSV1 SAVING "FLOW RIGHT FACE " ON UNIT  53 AT TIME STEP 93, STRESS PERIOD   3
 UBDSV1 SAVING "FLOW FRONT FACE " ON UNIT  53 AT TIME STEP 93, STRESS PERIOD   3
1
              HEAD IN LAYER   1 AT END OF TIME STEP  93 IN STRESS PERIOD    3
  ---------------------------------------------------------------------------

            1           2           3           4           5           6           7           8           9          10
 ........................................................................................................................
   1    9.990       8.786       7.591       6.418       5.277       4.177       3.111       2.068       1.036      1.0259E-02
   2    9.990       8.776       7.571       6.384       5.236       4.144       3.089       2.055       1.031      1.0205E-02
   3    9.990       8.759       7.530       6.314       5.140       4.072       3.047       2.033       1.021      1.0113E-02
   4    9.990       8.738       7.477       6.200       4.936       3.958       2.992       2.008       1.012      1.0021E-02
   5    9.989       8.728       7.441       6.074       4.447       3.832       2.955       1.997       1.009      9.9862E-03
   6    9.990       8.742       7.484       6.209       4.946       3.968       3.000       2.014       1.015      1.0053E-02
   7    9.990       8.766       7.544       6.332       5.160       4.092       3.064       2.045       1.028      1.0179E-02
   8    9.990       8.788       7.593       6.415       5.271       4.177       3.118       2.075       1.041      1.0310E-02
   9    9.990       8.804       7.626       6.465       5.330       4.228       3.154       2.097       1.051      1.0410E-02
  10    9.990       8.812       7.642       6.488       5.357       4.252       3.171       2.108       1.057      1.0463E-02

 HEAD WILL BE SAVED ON UNIT   51 AT END OF TIME STEP   93, STRESS PERIOD    3

 DRAWDOWN WILL BE SAVED ON UNIT   52 AT END OF TIME STEP   93, STRESS PERIOD    3
1
  VOLUMETRIC BUDGET FOR ENTIRE MODEL AT END OF TIME STEP   93, STRESS PERIOD   3
  ------------------------------------------------------------------------------

     CUMULATIVE VOLUMES      L**3       RATES FOR THIS TIME STEP      L**3/T
     ------------------                 ------------------------

           IN:                                      IN:
           ---                                      ---
             STORAGE =       25999.7266               STORAGE =       1.5955E-02
       CONSTANT HEAD =           0.0000         CONSTANT HEAD =           0.0000
               WELLS =           0.0000                 WELLS =           0.0000
     HEAD DEP BOUNDS =      104203.9766       HEAD DEP BOUNDS =         609.9637

            TOTAL IN =      130203.7031              TOTAL IN =         609.9797

          OUT:                                     OUT:
          ----                                     ----
             STORAGE =           0.0000               STORAGE =           0.0000
       CONSTANT HEAD =           0.0000         CONSTANT HEAD =           0.0000
               WELLS =        9300.0000                 WELLS =         100.0000
     HEAD DEP BOUNDS =      120940.5859       HEAD DEP BOUNDS =         509.9909

           TOTAL OUT =      130240.5859             TOTAL OUT =         609.9908

            IN - OUT =         -36.8828              IN - OUT =      -1.1169E-02

 PERCENT DISCREPANCY =          -0.03     PERCENT DISCREPANCY =          -0.00






         TIME SUMMARY AT END OF TIME STEP   93 IN STRESS PERIOD    3
                    SECONDS     MINUTES      HOURS       DAYS        YEARS
                    -----------------------------------------------------------
   TIME STEP LENGTH  86400.      1440.0      24.000      1.0000     2.73785E-03
 STRESS PERIOD TIME 8.03520E+06 1.33920E+05  2232.0      93.000     0.25462    
         TOTAL TIME 1.67616E+07 2.79360E+05  4656.0      194.00     0.53114    
1

 SOLVING FOR HEAD 
     1 ITERATIONS FOR TIME STEP  94 IN STRESS PERIOD    3

 OUTPUT CONTROL FOR STRESS PERIOD    3   TIME STEP   94
    SAVE HEAD FOR ALL LAYERS
    SAVE DRAWDOWN FOR ALL LAYERS
    SAVE BUDGET
    PRINT HEAD FOR ALL LAYERS
    PRINT BUDGET
 UBDSV1 SAVING "         STORAGE" ON UNIT  53 AT TIME STEP 94, STRESS PERIOD   3
 UBDSV2 SAVING "   CONSTANT HEAD" ON UNIT  53 AT TIME STEP 94, STRESS PERIOD   3
 UBDSV1 SAVING "FLOW RIGHT FACE " ON UNIT  53 AT TIME STEP 94, STRESS PERIOD   3
 UBDSV1 SAVING "FLOW FRONT FACE " ON UNIT  53 AT TIME STEP 94, STRESS PERIOD   3
1
              HEAD IN LAYER   1 AT END OF TIME STEP  94 IN STRESS PERIOD    3
  ---------------------------------------------------------------------------

            1           2           3           4           5           6           7           8           9          10
 ........................................................................................................................
   1    9.990       8.786       7.591       6.418       5.277       4.177       3.111       2.068       1.036      1.0259E-02
   2    9.990       8.776       7.571       6.384       5.236       4.144       3.089       2.055       1.031      1.0205E-02
   3    9.990       8.759       7.530       6.314       5.140       4.072       3.047       2.033       1.021      1.0113E-02
   4    9.990       8.738       7.477       6.200       4.936       3.958       2.992       2.008       1.012      1.0021E-02
   5    9.989       8.728       7.441       6.074       4.447       3.832       2.955       1.997       1.009      9.9862E-03
   6    9.990       8.742       7.484       6.209       4.946       3.968       3.000       2.014       1.015      1.0053E-02
   7    9.990       8.766       7.544       6.332       5.160       4.092       3.064       2.045       1.028      1.0179E-02
   8    9.990       8.788       7.593       6.415       5.271       4.177       3.118       2.075       1.041      1.0309E-02
   9    9.990       8.804       7.626       6.465       5.330       4.228       3.154       2.097       1.051      1.0410E-02
  10    9.990       8.812       7.642       6.488       5.357       4.252       3.171       2.108       1.057      1.0463E-02

 HEAD WILL BE SAVED ON UNIT   51 AT END OF TIME STEP   94, STRESS PERIOD    3

 DRAWDOWN WILL BE SAVED ON UNIT   52 AT END OF TIME STEP   94, STRESS PERIOD    3
1
  VOLUMETRIC BUDGET FOR ENTIRE MODEL AT END OF TIME STEP   94, STRESS PERIOD   3
  ------------------------------------------------------------------------------

     CUMULATIVE VOLUMES      L**3       RATES FOR THIS TIME STEP      L**3/T
     ------------------                 ------------------------

           IN:                                      IN:
           ---                                      ---
             STORAGE =       25999.7422               STORAGE =       1.4799E-02
       CONSTANT HEAD =           0.0000         CONSTANT HEAD =           0.0000
               WELLS =           0.0000                 WELLS =           0.0000
     HEAD DEP BOUNDS =      104813.9375       HEAD DEP BOUNDS =         609.9647

            TOTAL IN =      130813.6797              TOTAL IN =         609.9794

          OUT:                                     OUT:
          ----                                     ----
             STORAGE =           0.0000               STORAGE =           0.0000
       CONSTANT HEAD =           0.0000         CONSTANT HEAD =           0.0000
               WELLS =        9400.0000                 WELLS =         100.0000
     HEAD DEP BOUNDS =      121450.5781       HEAD DEP BOUNDS =         509.9900

           TOTAL OUT =      130850.5781             TOTAL OUT =         609.9900

            IN - OUT =         -36.8984              IN - OUT =      -1.0559E-02

 PERCENT DISCREPANCY =          -0.03     PERCENT DISCREPANCY =          -0.00






         TIME SUMMARY AT END OF TIME STEP   94 IN STRESS PERIOD    3
                    SECONDS     MINUTES      HOURS       DAYS        YEARS
                    -----------------------------------------------------------
   TIME STEP LENGTH  86400.      1440.0      24.000      1.0000     2.73785E-03
 STRESS PERIOD TIME 8.12160E+06 1.35360E+05  2256.0      94.000     0.25736    
         TOTAL TIME 1.68480E+07 2.80800E+05  4680.0      195.00     0.53388    
1

 SOLVING FOR HEAD 
     1 ITERATIONS FOR TIME STEP  95 IN STRESS PERIOD    3

 OUTPUT CONTROL FOR STRESS PERIOD    3   TIME STEP   95
    SAVE HEAD FOR ALL LAYERS
    SAVE DRAWDOWN FOR ALL LAYERS
    SAVE BUDGET
    PRINT HEAD FOR ALL LAYERS
    PRINT BUDGET
 UBDSV1 SAVING "         STORAGE" ON UNIT  53 AT TIME STEP 95, STRESS PERIOD   3
 UBDSV2 SAVING "   CONSTANT HEAD" ON UNIT  53 AT TIME STEP 95, STRESS PERIOD   3
 UBDSV1 SAVING "FLOW RIGHT FACE " ON UNIT  53 AT TIME STEP 95, STRESS PERIOD   3
 UBDSV1 SAVING "FLOW FRONT FACE " ON UNIT  53 AT TIME STEP 95, STRESS PERIOD   3
1
              HEAD IN LAYER   1 AT END OF TIME STEP  95 IN STRESS PERIOD    3
  ---------------------------------------------------------------------------

            1           2           3           4           5           6           7           8           9          10
 ........................................................................................................................
   1    9.990       8.786       7.591       6.418       5.277       4.177       3.111       2.068       1.036      1.0259E-02
   2    9.990       8.776       7.571       6.384       5.236       4.144       3.089       2.055       1.031      1.0205E-02
   3    9.990       8.759       7.530       6.314       5.140       4.072       3.047       2.033       1.021      1.0113E-02
   4    9.990       8.738       7.477       6.200       4.936       3.958       2.992       2.008       1.012      1.0021E-02
   5    9.989       8.728       7.441       6.074       4.447       3.832       2.955       1.997       1.009      9.9862E-03
   6    9.990       8.742       7.484       6.209       4.946       3.968       3.000       2.014       1.015      1.0053E-02
   7    9.990       8.766       7.544       6.332       5.160       4.092       3.064       2.045       1.028      1.0179E-02
   8    9.990       8.788       7.593       6.415       5.271       4.177       3.118       2.075       1.041      1.0309E-02
   9    9.990       8.804       7.626       6.465       5.330       4.228       3.154       2.097       1.051      1.0410E-02
  10    9.990       8.812       7.642       6.488       5.357       4.252       3.171       2.108       1.057      1.0463E-02

 HEAD WILL BE SAVED ON UNIT   51 AT END OF TIME STEP   95, STRESS PERIOD    3

 DRAWDOWN WILL BE SAVED ON UNIT   52 AT END OF TIME STEP   95, STRESS PERIOD    3
1
  VOLUMETRIC BUDGET FOR ENTIRE MODEL AT END OF TIME STEP   95, STRESS PERIOD   3
  ------------------------------------------------------------------------------

     CUMULATIVE VOLUMES      L**3       RATES FOR THIS TIME STEP      L**3/T
     ------------------                 ------------------------

           IN:                                      IN:
           ---                                      ---
             STORAGE =       25999.7559               STORAGE =       1.3348E-02
       CONSTANT HEAD =           0.0000         CONSTANT HEAD =           0.0000
               WELLS =           0.0000                 WELLS =           0.0000
     HEAD DEP BOUNDS =      105423.9062       HEAD DEP BOUNDS =         609.9655

            TOTAL IN =      131423.6562              TOTAL IN =         609.9788

          OUT:                                     OUT:
          ----                                     ----
             STORAGE =           0.0000               STORAGE =           0.0000
       CONSTANT HEAD =           0.0000         CONSTANT HEAD =           0.0000
               WELLS =        9500.0000                 WELLS =         100.0000
     HEAD DEP BOUNDS =      121960.5703       HEAD DEP BOUNDS =         509.9892

           TOTAL OUT =      131460.5625             TOTAL OUT =         609.9891

            IN - OUT =         -36.9062              IN - OUT =      -1.0315E-02

 PERCENT DISCREPANCY =          -0.03     PERCENT DISCREPANCY =          -0.00






         TIME SUMMARY AT END OF TIME STEP   95 IN STRESS PERIOD    3
                    SECONDS     MINUTES      HOURS       DAYS        YEARS
                    -----------------------------------------------------------
   TIME STEP LENGTH  86400.      1440.0      24.000      1.0000     2.73785E-03
 STRESS PERIOD TIME 8.20800E+06 1.36800E+05  2280.0      95.000     0.26010    
         TOTAL TIME 1.69344E+07 2.82240E+05  4704.0      196.00     0.53662    
1

 SOLVING FOR HEAD 
     1 ITERATIONS FOR TIME STEP  96 IN STRESS PERIOD    3

 OUTPUT CONTROL FOR STRESS PERIOD    3   TIME STEP   96
    SAVE HEAD FOR ALL LAYERS
    SAVE DRAWDOWN FOR ALL LAYERS
    SAVE BUDGET
    PRINT HEAD FOR ALL LAYERS
    PRINT BUDGET
 UBDSV1 SAVING "         STORAGE" ON UNIT  53 AT TIME STEP 96, STRESS PERIOD   3
 UBDSV2 SAVING "   CONSTANT HEAD" ON UNIT  53 AT TIME STEP 96, STRESS PERIOD   3
 UBDSV1 SAVING "FLOW RIGHT FACE " ON UNIT  53 AT TIME STEP 96, STRESS PERIOD   3
 UBDSV1 SAVING "FLOW FRONT FACE " ON UNIT  53 AT TIME STEP 96, STRESS PERIOD   3
1
              HEAD IN LAYER   1 AT END OF TIME STEP  96 IN STRESS PERIOD    3
  ---------------------------------------------------------------------------

            1           2           3           4           5           6           7           8           9          10
 ........................................................................................................................
   1    9.990       8.786       7.591       6.418       5.277       4.177       3.111       2.068       1.036      1.0259E-02
   2    9.990       8.776       7.571       6.384       5.236       4.144       3.089       2.055       1.031      1.0205E-02
   3    9.990       8.759       7.530       6.314       5.140       4.072       3.047       2.033       1.021      1.0113E-02
   4    9.990       8.738       7.477       6.200       4.936       3.958       2.992       2.008       1.012      1.0021E-02
   5    9.989       8.728       7.441       6.074       4.447       3.832       2.955       1.997       1.009      9.9862E-03
   6    9.990       8.742       7.484       6.209       4.946       3.968       3.000       2.014       1.015      1.0053E-02
   7    9.990       8.766       7.544       6.332       5.160       4.092       3.064       2.045       1.028      1.0179E-02
   8    9.990       8.788       7.593       6.415       5.271       4.177       3.118       2.075       1.041      1.0309E-02
   9    9.990       8.804       7.626       6.465       5.330       4.228       3.154       2.097       1.051      1.0410E-02
  10    9.990       8.812       7.642       6.488       5.357       4.252       3.171       2.108       1.057      1.0463E-02

 HEAD WILL BE SAVED ON UNIT   51 AT END OF TIME STEP   96, STRESS PERIOD    3

 DRAWDOWN WILL BE SAVED ON UNIT   52 AT END OF TIME STEP   96, STRESS PERIOD    3
1
  VOLUMETRIC BUDGET FOR ENTIRE MODEL AT END OF TIME STEP   96, STRESS PERIOD   3
  ------------------------------------------------------------------------------

     CUMULATIVE VOLUMES      L**3       RATES FOR THIS TIME STEP      L**3/T
     ------------------                 ------------------------

           IN:                                      IN:
           ---                                      ---
             STORAGE =       25999.7676               STORAGE =       1.2447E-02
       CONSTANT HEAD =           0.0000         CONSTANT HEAD =           0.0000
               WELLS =           0.0000                 WELLS =           0.0000
     HEAD DEP BOUNDS =      106033.8750       HEAD DEP BOUNDS =         609.9662

            TOTAL IN =      132033.6406              TOTAL IN =         609.9786

          OUT:                                     OUT:
          ----                                     ----
             STORAGE =           0.0000               STORAGE =           0.0000
       CONSTANT HEAD =           0.0000         CONSTANT HEAD =           0.0000
               WELLS =        9600.0000                 WELLS =         100.0000
     HEAD DEP BOUNDS =      122470.5625       HEAD DEP BOUNDS =         509.9884

           TOTAL OUT =      132070.5625             TOTAL OUT =         609.9884

            IN - OUT =         -36.9219              IN - OUT =      -9.7656E-03

 PERCENT DISCREPANCY =          -0.03     PERCENT DISCREPANCY =          -0.00






         TIME SUMMARY AT END OF TIME STEP   96 IN STRESS PERIOD    3
                    SECONDS     MINUTES      HOURS       DAYS        YEARS
                    -----------------------------------------------------------
   TIME STEP LENGTH  86400.      1440.0      24.000      1.0000     2.73785E-03
 STRESS PERIOD TIME 8.29440E+06 1.38240E+05  2304.0      96.000     0.26283    
         TOTAL TIME 1.70208E+07 2.83680E+05  4728.0      197.00     0.53936    
1

 SOLVING FOR HEAD 
     1 ITERATIONS FOR TIME STEP  97 IN STRESS PERIOD    3

 OUTPUT CONTROL FOR STRESS PERIOD    3   TIME STEP   97
    SAVE HEAD FOR ALL LAYERS
    SAVE DRAWDOWN FOR ALL LAYERS
    SAVE BUDGET
    PRINT HEAD FOR ALL LAYERS
    PRINT BUDGET
 UBDSV1 SAVING "         STORAGE" ON UNIT  53 AT TIME STEP 97, STRESS PERIOD   3
 UBDSV2 SAVING "   CONSTANT HEAD" ON UNIT  53 AT TIME STEP 97, STRESS PERIOD   3
 UBDSV1 SAVING "FLOW RIGHT FACE " ON UNIT  53 AT TIME STEP 97, STRESS PERIOD   3
 UBDSV1 SAVING "FLOW FRONT FACE " ON UNIT  53 AT TIME STEP 97, STRESS PERIOD   3
1
              HEAD IN LAYER   1 AT END OF TIME STEP  97 IN STRESS PERIOD    3
  ---------------------------------------------------------------------------

            1           2           3           4           5           6           7           8           9          10
 ........................................................................................................................
   1    9.990       8.786       7.591       6.418       5.277       4.177       3.111       2.068       1.036      1.0259E-02
   2    9.990       8.776       7.571       6.384       5.236       4.144       3.089       2.055       1.031      1.0205E-02
   3    9.990       8.759       7.530       6.314       5.140       4.072       3.047       2.033       1.021      1.0113E-02
   4    9.990       8.738       7.477       6.200       4.936       3.958       2.992       2.008       1.012      1.0021E-02
   5    9.989       8.728       7.441       6.074       4.447       3.832       2.955       1.997       1.009      9.9862E-03
   6    9.990       8.742       7.484       6.209       4.946       3.968       3.000       2.014       1.015      1.0053E-02
   7    9.990       8.766       7.544       6.332       5.160       4.092       3.064       2.045       1.028      1.0179E-02
   8    9.990       8.788       7.593       6.415       5.271       4.177       3.118       2.075       1.041      1.0309E-02
   9    9.990       8.804       7.626       6.465       5.330       4.228       3.154       2.097       1.051      1.0410E-02
  10    9.990       8.812       7.642       6.488       5.357       4.252       3.171       2.108       1.057      1.0463E-02

 HEAD WILL BE SAVED ON UNIT   51 AT END OF TIME STEP   97, STRESS PERIOD    3

 DRAWDOWN WILL BE SAVED ON UNIT   52 AT END OF TIME STEP   97, STRESS PERIOD    3
1
  VOLUMETRIC BUDGET FOR ENTIRE MODEL AT END OF TIME STEP   97, STRESS PERIOD   3
  ------------------------------------------------------------------------------

     CUMULATIVE VOLUMES      L**3       RATES FOR THIS TIME STEP      L**3/T
     ------------------                 ------------------------

           IN:                                      IN:
           ---                                      ---
             STORAGE =       25999.7793               STORAGE =       1.1329E-02
       CONSTANT HEAD =           0.0000         CONSTANT HEAD =           0.0000
               WELLS =           0.0000                 WELLS =           0.0000
     HEAD DEP BOUNDS =      106643.8438       HEAD DEP BOUNDS =         609.9669

            TOTAL IN =      132643.6250              TOTAL IN =         609.9782

          OUT:                                     OUT:
          ----                                     ----
             STORAGE =           0.0000               STORAGE =           0.0000
       CONSTANT HEAD =           0.0000         CONSTANT HEAD =           0.0000
               WELLS =        9700.0000                 WELLS =         100.0000
     HEAD DEP BOUNDS =      122980.5469       HEAD DEP BOUNDS =         509.9877

           TOTAL OUT =      132680.5469             TOTAL OUT =         609.9877

            IN - OUT =         -36.9219              IN - OUT =      -9.4604E-03

 PERCENT DISCREPANCY =          -0.03     PERCENT DISCREPANCY =          -0.00






         TIME SUMMARY AT END OF TIME STEP   97 IN STRESS PERIOD    3
                    SECONDS     MINUTES      HOURS       DAYS        YEARS
                    -----------------------------------------------------------
   TIME STEP LENGTH  86400.      1440.0      24.000      1.0000     2.73785E-03
 STRESS PERIOD TIME 8.38080E+06 1.39680E+05  2328.0      97.000     0.26557    
         TOTAL TIME 1.71072E+07 2.85120E+05  4752.0      198.00     0.54209    
1

 SOLVING FOR HEAD 
     1 ITERATIONS FOR TIME STEP  98 IN STRESS PERIOD    3

 OUTPUT CONTROL FOR STRESS PERIOD    3   TIME STEP   98
    SAVE HEAD FOR ALL LAYERS
    SAVE DRAWDOWN FOR ALL LAYERS
    SAVE BUDGET
    PRINT HEAD FOR ALL LAYERS
    PRINT BUDGET
 UBDSV1 SAVING "         STORAGE" ON UNIT  53 AT TIME STEP 98, STRESS PERIOD   3
 UBDSV2 SAVING "   CONSTANT HEAD" ON UNIT  53 AT TIME STEP 98, STRESS PERIOD   3
 UBDSV1 SAVING "FLOW RIGHT FACE " ON UNIT  53 AT TIME STEP 98, STRESS PERIOD   3
 UBDSV1 SAVING "FLOW FRONT FACE " ON UNIT  53 AT TIME STEP 98, STRESS PERIOD   3
1
              HEAD IN LAYER   1 AT END OF TIME STEP  98 IN STRESS PERIOD    3
  ---------------------------------------------------------------------------

            1           2           3           4           5           6           7           8           9          10
 ........................................................................................................................
   1    9.990       8.786       7.591       6.418       5.277       4.177       3.111       2.068       1.036      1.0259E-02
   2    9.990       8.776       7.571       6.384       5.236       4.144       3.089       2.055       1.031      1.0205E-02
   3    9.990       8.759       7.530       6.314       5.140       4.072       3.047       2.033       1.021      1.0113E-02
   4    9.990       8.738       7.477       6.200       4.936       3.958       2.992       2.008       1.012      1.0021E-02
   5    9.989       8.728       7.441       6.074       4.447       3.832       2.955       1.997       1.009      9.9862E-03
   6    9.990       8.742       7.484       6.209       4.946       3.968       3.000       2.014       1.015      1.0053E-02
   7    9.990       8.766       7.544       6.332       5.160       4.092       3.064       2.045       1.028      1.0179E-02
   8    9.990       8.788       7.593       6.415       5.271       4.177       3.118       2.075       1.041      1.0309E-02
   9    9.990       8.804       7.626       6.465       5.330       4.228       3.154       2.097       1.051      1.0410E-02
  10    9.990       8.812       7.642       6.488       5.357       4.252       3.171       2.108       1.057      1.0463E-02

 HEAD WILL BE SAVED ON UNIT   51 AT END OF TIME STEP   98, STRESS PERIOD    3

 DRAWDOWN WILL BE SAVED ON UNIT   52 AT END OF TIME STEP   98, STRESS PERIOD    3
1
  VOLUMETRIC BUDGET FOR ENTIRE MODEL AT END OF TIME STEP   98, STRESS PERIOD   3
  ------------------------------------------------------------------------------

     CUMULATIVE VOLUMES      L**3       RATES FOR THIS TIME STEP      L**3/T
     ------------------                 ------------------------

           IN:                                      IN:
           ---                                      ---
             STORAGE =       25999.7891               STORAGE =       1.0478E-02
       CONSTANT HEAD =           0.0000         CONSTANT HEAD =           0.0000
               WELLS =           0.0000                 WELLS =           0.0000
     HEAD DEP BOUNDS =      107253.8125       HEAD DEP BOUNDS =         609.9675

            TOTAL IN =      133253.5938              TOTAL IN =         609.9780

          OUT:                                     OUT:
          ----                                     ----
             STORAGE =           0.0000               STORAGE =           0.0000
       CONSTANT HEAD =           0.0000         CONSTANT HEAD =           0.0000
               WELLS =        9800.0000                 WELLS =         100.0000
     HEAD DEP BOUNDS =      123490.5312       HEAD DEP BOUNDS =         509.9871

           TOTAL OUT =      133290.5312             TOTAL OUT =         609.9871

            IN - OUT =         -36.9375              IN - OUT =      -9.0942E-03

 PERCENT DISCREPANCY =          -0.03     PERCENT DISCREPANCY =          -0.00






         TIME SUMMARY AT END OF TIME STEP   98 IN STRESS PERIOD    3
                    SECONDS     MINUTES      HOURS       DAYS        YEARS
                    -----------------------------------------------------------
   TIME STEP LENGTH  86400.      1440.0      24.000      1.0000     2.73785E-03
 STRESS PERIOD TIME 8.46720E+06 1.41120E+05  2352.0      98.000     0.26831    
         TOTAL TIME 1.71936E+07 2.86560E+05  4776.0      199.00     0.54483    
1

 SOLVING FOR HEAD 
     1 ITERATIONS FOR TIME STEP  99 IN STRESS PERIOD    3

 OUTPUT CONTROL FOR STRESS PERIOD    3   TIME STEP   99
    SAVE HEAD FOR ALL LAYERS
    SAVE DRAWDOWN FOR ALL LAYERS
    SAVE BUDGET
    PRINT HEAD FOR ALL LAYERS
    PRINT BUDGET
 UBDSV1 SAVING "         STORAGE" ON UNIT  53 AT TIME STEP 99, STRESS PERIOD   3
 UBDSV2 SAVING "   CONSTANT HEAD" ON UNIT  53 AT TIME STEP 99, STRESS PERIOD   3
 UBDSV1 SAVING "FLOW RIGHT FACE " ON UNIT  53 AT TIME STEP 99, STRESS PERIOD   3
 UBDSV1 SAVING "FLOW FRONT FACE " ON UNIT  53 AT TIME STEP 99, STRESS PERIOD   3
1
              HEAD IN LAYER   1 AT END OF TIME STEP  99 IN STRESS PERIOD    3
  ---------------------------------------------------------------------------

            1           2           3           4           5           6           7           8           9          10
 ........................................................................................................................
   1    9.990       8.786       7.591       6.418       5.277       4.177       3.111       2.068       1.036      1.0259E-02
   2    9.990       8.776       7.570       6.384       5.236       4.144       3.089       2.055       1.031      1.0205E-02
   3    9.990       8.759       7.530       6.314       5.140       4.072       3.047       2.033       1.021      1.0113E-02
   4    9.990       8.738       7.477       6.200       4.936       3.958       2.992       2.008       1.012      1.0021E-02
   5    9.989       8.728       7.441       6.074       4.447       3.832       2.955       1.997       1.008      9.9862E-03
   6    9.990       8.742       7.484       6.209       4.946       3.968       3.000       2.014       1.015      1.0053E-02
   7    9.990       8.766       7.544       6.332       5.160       4.092       3.064       2.045       1.028      1.0179E-02
   8    9.990       8.788       7.593       6.415       5.271       4.177       3.118       2.075       1.041      1.0309E-02
   9    9.990       8.804       7.626       6.465       5.330       4.228       3.154       2.097       1.051      1.0410E-02
  10    9.990       8.812       7.642       6.488       5.357       4.252       3.171       2.108       1.057      1.0463E-02

 HEAD WILL BE SAVED ON UNIT   51 AT END OF TIME STEP   99, STRESS PERIOD    3

 DRAWDOWN WILL BE SAVED ON UNIT   52 AT END OF TIME STEP   99, STRESS PERIOD    3
1
  VOLUMETRIC BUDGET FOR ENTIRE MODEL AT END OF TIME STEP   99, STRESS PERIOD   3
  ------------------------------------------------------------------------------

     CUMULATIVE VOLUMES      L**3       RATES FOR THIS TIME STEP      L**3/T
     ------------------                 ------------------------

           IN:                                      IN:
           ---                                      ---
             STORAGE =       25999.7988               STORAGE =       9.7486E-03
       CONSTANT HEAD =           0.0000         CONSTANT HEAD =           0.0000
               WELLS =           0.0000                 WELLS =           0.0000
     HEAD DEP BOUNDS =      107863.7812       HEAD DEP BOUNDS =         609.9680

            TOTAL IN =      133863.5781              TOTAL IN =         609.9778

          OUT:                                     OUT:
          ----                                     ----
             STORAGE =           0.0000               STORAGE =           0.0000
       CONSTANT HEAD =           0.0000         CONSTANT HEAD =           0.0000
               WELLS =        9900.0000                 WELLS =         100.0000
     HEAD DEP BOUNDS =      124000.5156       HEAD DEP BOUNDS =         509.9865

           TOTAL OUT =      133900.5156             TOTAL OUT =         609.9865

            IN - OUT =         -36.9375              IN - OUT =      -8.6670E-03

 PERCENT DISCREPANCY =          -0.03     PERCENT DISCREPANCY =          -0.00






         TIME SUMMARY AT END OF TIME STEP   99 IN STRESS PERIOD    3
                    SECONDS     MINUTES      HOURS       DAYS        YEARS
                    -----------------------------------------------------------
   TIME STEP LENGTH  86400.      1440.0      24.000      1.0000     2.73785E-03
 STRESS PERIOD TIME 8.55360E+06 1.42560E+05  2376.0      99.000     0.27105    
         TOTAL TIME 1.72800E+07 2.88000E+05  4800.0      200.00     0.54757    
1

 SOLVING FOR HEAD 
     1 ITERATIONS FOR TIME STEP 100 IN STRESS PERIOD    3

 MAXIMUM HEAD CHANGE FOR EACH ITERATION:

    HEAD CHANGE   HEAD CHANGE   HEAD CHANGE   HEAD CHANGE   HEAD CHANGE
  LAYER,ROW,COL LAYER,ROW,COL LAYER,ROW,COL LAYER,ROW,COL LAYER,ROW,COL
 ----------------------------------------------------------------------
    -0.3172E-05
  (  1,  6,  6)


 OUTPUT CONTROL FOR STRESS PERIOD    3   TIME STEP  100
    SAVE HEAD FOR ALL LAYERS
    SAVE DRAWDOWN FOR ALL LAYERS
    SAVE BUDGET
    PRINT HEAD FOR ALL LAYERS
    PRINT BUDGET
 UBDSV1 SAVING "         STORAGE" ON UNIT  53 AT TIME STEP100, STRESS PERIOD   3
 UBDSV2 SAVING "   CONSTANT HEAD" ON UNIT  53 AT TIME STEP100, STRESS PERIOD   3
 UBDSV1 SAVING "FLOW RIGHT FACE " ON UNIT  53 AT TIME STEP100, STRESS PERIOD   3
 UBDSV1 SAVING "FLOW FRONT FACE " ON UNIT  53 AT TIME STEP100, STRESS PERIOD   3
1
              HEAD IN LAYER   1 AT END OF TIME STEP 100 IN STRESS PERIOD    3
  ---------------------------------------------------------------------------

            1           2           3           4           5           6           7           8           9          10
 ........................................................................................................................
   1    9.990       8.786       7.591       6.418       5.277       4.177       3.111       2.068       1.036      1.0259E-02
   2    9.990       8.776       7.570       6.384       5.236       4.144       3.089       2.055       1.031      1.0205E-02
   3    9.990       8.759       7.530       6.314       5.140       4.072       3.047       2.033       1.021      1.0113E-02
   4    9.990       8.738       7.477       6.200       4.936       3.958       2.992       2.008       1.012      1.0021E-02
   5    9.989       8.728       7.441       6.074       4.447       3.832       2.955       1.997       1.008      9.9861E-03
   6    9.990       8.742       7.484       6.209       4.946       3.968       3.000       2.014       1.015      1.0053E-02
   7    9.990       8.766       7.544       6.332       5.160       4.092       3.064       2.045       1.028      1.0179E-02
   8    9.990       8.788       7.593       6.415       5.271       4.177       3.118       2.075       1.041      1.0309E-02
   9    9.990       8.804       7.626       6.465       5.330       4.228       3.154       2.097       1.051      1.0410E-02
  10    9.990       8.812       7.642       6.488       5.357       4.252       3.171       2.108       1.057      1.0463E-02

 HEAD WILL BE SAVED ON UNIT   51 AT END OF TIME STEP  100, STRESS PERIOD    3

 DRAWDOWN WILL BE SAVED ON UNIT   52 AT END OF TIME STEP  100, STRESS PERIOD    3
1
  VOLUMETRIC BUDGET FOR ENTIRE MODEL AT END OF TIME STEP  100, STRESS PERIOD   3
  ------------------------------------------------------------------------------

     CUMULATIVE VOLUMES      L**3       RATES FOR THIS TIME STEP      L**3/T
     ------------------                 ------------------------

           IN:                                      IN:
           ---                                      ---
             STORAGE =       25999.8086               STORAGE =       8.9546E-03
       CONSTANT HEAD =           0.0000         CONSTANT HEAD =           0.0000
               WELLS =           0.0000                 WELLS =           0.0000
     HEAD DEP BOUNDS =      108473.7500       HEAD DEP BOUNDS =         609.9686

            TOTAL IN =      134473.5625              TOTAL IN =         609.9775

          OUT:                                     OUT:
          ----                                     ----
             STORAGE =           0.0000               STORAGE =           0.0000
       CONSTANT HEAD =           0.0000         CONSTANT HEAD =           0.0000
               WELLS =       10000.0000                 WELLS =         100.0000
     HEAD DEP BOUNDS =      124510.5000       HEAD DEP BOUNDS =         509.9859

           TOTAL OUT =      134510.5000             TOTAL OUT =         609.9860

            IN - OUT =         -36.9375              IN - OUT =      -8.4229E-03

 PERCENT DISCREPANCY =          -0.03     PERCENT DISCREPANCY =          -0.00






         TIME SUMMARY AT END OF TIME STEP  100 IN STRESS PERIOD    3
                    SECONDS     MINUTES      HOURS       DAYS        YEARS
                    -----------------------------------------------------------
   TIME STEP LENGTH  86400.      1440.0      24.000      1.0000     2.73785E-03
 STRESS PERIOD TIME 8.64000E+06 1.44000E+05  2400.0      100.00     0.27379    
         TOTAL TIME 1.73664E+07 2.89440E+05  4824.0      201.00     0.55031    
1

 Run end date and time (yyyy/mm/dd hh:mm:ss): 2015/07/17 23:11:53
 Elapsed run time:  0.053 Seconds

